* Copyright © Linear Technology Corp. 04/07/2006. All rights reserved.
*
* Pinout: VEE OUT2 VCC OUT1 EN/ DGND IN1+ IN1- IN2- IN2+
* Node numbers below are named according to their respective pin on the IC
* V+ and V- pins are not repeated, which leaves 12 pins instead of 16
*
.SUBCKT LT6411 1 5 6 8 11 12 13 14 15 16
XAMP1 14 13 6 1 8 123 62 LT6411_BASE
XAMP2 15 16 6 1 5 223 62 LT6411_BASE
RVNOI1 41 0 1.5E3
DVNF1 42 0 DVNOI
IVNF1 0 42 1
IDUM1 41 0 0
DVNFX1 43 0 DVNOIX
IVNFX1 0 43 1
GVNOI2 20 0 42 43 1
IVOS1 0 20 12.4E-3
GINOI1 0 13 41 0 8E-4
RSHDN1 11 12 47E3
ESHD1 62 0 VALUE={0.5+0.5*TANH(5*(V(12,11)+1.45))}
IDGND1 6 12 10E-6
GPSRR1 0 65 6 1 1E-5
RPSRR1 65 0 100
RPSRR2 65 66 300
CPSRR1 66 6 5.3E-10
RPSRR3 65 67 300
CPSRR2 67 1 5.3E-10
GINOI2 0 16 41 0 8E-4
GPWR1 6 1 VALUE={22E-6+V(62)*(6.66E-4*V(6,1)+11.7E-3)}
GCT1 0 31 5 0 1E-8
RCT1 31 0 100
CCT1 32 5 6E-15
RCT2 31 32 4500
GCT2 0 33 8 0 1E-8
RCT3 33 0 100
CCT2 34 8 6E-15
RCT4 33 34 4500
GX1 0 123 VALUE={V(20)-V(65)+V(31)}
GX2 0 223 VALUE={V(20)-V(65)+V(33)}
RINP1 20 0 1
.MODEL DVNOIX D(KF=0 RS=0)
.MODEL DVNOI D(RS=0 KF=4.31E-10)
.ENDS LT6411
*
.SUBCKT LT6411_BASE 1 3 7 4 6 23 62
IBIASDEF1 3 0 -17E-6
RG1 24 0 250
CG1 24 0 1E-9
GG3 0 25 24 0 6.2832
RG3 25 26 0.159155
CG3 25 26 1.40E-9
DIN1 3 7 DIN
DIN2 4 3 DIN
GG1 0 24 VALUE={40*TANH(V(23))}
MOUT1 31 25 30 30 NOUT
MOUT2 32 25 30 30 POUT
GGAIN 0 23 3 2 1
RA 23 0 0.24
DVL1 244 24 DVLIM
DVL2 244 0 DVLIM
RFB1 6 2 370
RFB2 1 2 370
CIN 4 3 8E-13
MOUT3 7 7 31 31 NLIM
MOUT4 4 4 32 32 PLIM
CLD 4 6 8E-13
RDUM1 62 0 1E9
EVMID 26 0 VALUE={(V(7)+V(4))/2}
GOLIM 30 6 VALUE={V(62)*V(30,6)}
GINOI1 0 2 41 0 1
RINOI1 41 0 0.13
CINOI1 41 0 2.65E-9
IDUM1 0 41 0
.MODEL NOUT NMOS(KF=0 KP=5 VTO=-1E-3)
.MODEL POUT PMOS(KF=0 KP=5 VTO=1E-3)
.MODEL NLIM NMOS(KF=0 KP=0.032 VTO=0.5)
.MODEL PLIM PMOS(KF=0 KP=0.032 VTO=-0.5)
.MODEL NSW NMOS(KP=5 VTO=1E-3)
.MODEL DIN D(KF=0 RS=0)
.MODEL DVLIM D(BV=5 IS=1E-10 KF=0 RS=0)
.ENDS LT6411_BASE
*
* Pinout: EN/ DGND INR AGND1 ING AGND2 INB V- OUTB V+ OUTG OUTR
* Node numbers below are named according to their respective pin on the IC
* V+ and V- pins are not repeated, which leaves 12 pins instead of 16
*
.SUBCKT LT6553 1 2 3 4 5 6 7 8 10 11 12 14
XAMP1 4 3 11 8 14 123 62 LT6553_BASE
XAMP2 4 5 11 8 12 223 62 LT6553_BASE
XAMP3 6 7 11 8 10 323 62 LT6553_BASE
RVNOI1 41 0 1.5E3
DVNF1 42 0 DVNOI
IVNF1 0 42 1
IDUM1 41 0 0
DVNFX1 43 0 DVNOIX
IVNFX1 0 43 1
GVNOI2 20 0 42 43 1
IVOS1 0 20 12.4E-3
GINOI1 0 3 41 0 5E-4
RSHDN1 1 11 47E3
ESHD1 62 0 VALUE={0.5+0.5*TANH(5*(V(2,1)+1.45))}
IDGND1 11 2 10E-6
GPSRR1 0 65 11 8 1E-5
RPSRR1 65 0 100
RPSRR2 65 66 300
CPSRR1 66 11 5.3E-10
RPSRR3 65 67 300
CPSRR2 67 8 5.3E-10
GINOI2 0 5 41 0 5E-4
GINOI3 0 7 41 0 5E-4
GPWR1 11 8 VALUE={10E-6+V(62)*(9.99E-4*V(11,8)+14.4E-3)}
GCT1 0 31 10 0 1E-8
RCT1 31 0 100
CCT1 32 10 6E-15
RCT2 31 32 4500
GCT2 0 33 12 0 1E-8
RCT3 33 0 100
CCT2 34 12 6E-15
RCT4 33 34 4500
GCT3 0 35 14 0 1E-8
RCT5 35 0 100
CCT3 36 14 6E-15
RCT6 35 36 4500
GX1 0 123 VALUE={V(20)-V(65)+V(31)+V(33)}
GX2 0 223 VALUE={V(20)-V(65)+V(31)+V(35)}
GX3 0 323 VALUE={V(20)-V(65)+V(35)+V(33)}
RINP1 20 0 1
.MODEL DVNOIX D(KF=0 RS=0)
.MODEL DVNOI D(RS=0 KF=4.31E-10)
.ENDS LT6553
*
.SUBCKT LT6553_BASE 1 3 7 4 6 23 62
IBIASDEF1 3 0 -17E-6
RG1 24 0 250
CG1 24 0 1E-9
GG3 0 25 24 0 6.2832
RG3 25 26 0.159155
CG3 25 26 1.40E-9
DIN1 3 7 DIN
DIN2 4 3 DIN
GG1 0 24 VALUE={40*TANH(V(23))}
MOUT1 31 25 30 30 NOUT
MOUT2 32 25 30 30 POUT
GGAIN 0 23 3 2 1
RA 23 0 0.24
DVL1 244 24 DVLIM
DVL2 244 0 DVLIM
RFB1 6 2 370
RFB2 1 2 370
CIN 4 3 8E-13
MOUT3 7 7 31 31 NLIM
MOUT4 4 4 32 32 PLIM
CLD 4 6 8E-13
RDUM1 62 0 1E9
EVMID 26 0 VALUE={(V(7)+V(4))/2}
GOLIM 30 6 VALUE={V(62)*V(30,6)}
GINOI1 0 2 41 0 1
RINOI1 41 0 0.12
CINOI1 41 0 1.5E-9
IDUM1 0 41 0
.MODEL NOUT NMOS(KF=0 KP=5 VTO=-1E-3)
.MODEL POUT PMOS(KF=0 KP=5 VTO=1E-3)
.MODEL NLIM NMOS(KF=0 KP=0.032 VTO=0.5)
.MODEL PLIM PMOS(KF=0 KP=0.032 VTO=-0.5)
.MODEL NSW NMOS(KP=5 VTO=1E-3)
.MODEL DIN D(KF=0 RS=0)
.MODEL DVLIM D(BV=5 IS=1E-10 KF=0 RS=0)
.ENDS LT6553_BASE
*
* Pinout (Same as IC): EN/ -IN +IN V- REF RG OUT V+
.SUBCKT LTC2053 1 2 3 4 5 6 7 8
.timedomain
RG1 24 0 1591550
CG1 24 0 1.4E-6
GG3 0 25 24 0 6.2832
RG3 25 0 0.159155
CG3 25 0 5E-6
DIN1 2 8 DIN
DIN2 3 8 DIN
DIN3 4 3 DIN
DIN4 4 2 DIN
RSHDN 8 1 1E7
GG1 0 24 VALUE={4E-3*TANH(V(23))}
MOUT1 8 26 27 27 NOUT
MOUT2 4 26 27 27 POUT
DOUT1 26 27 DOUTP
DOUT2 27 26 DOUTN
GOUT 0 26 VALUE={1m*TANH(V(25))}
ROUT1 8 26 2E5
ROUT2 26 4 2E5
RA 23 0 5
DVL1 29 24 DVLIM
DVL2 29 0 DVLIM
SIN1 3 11 71 76 SIN
SIN2 2 12 71 76 SIN
SIN3 11 21 72 76 SIN
SIN4 12 5 72 76 SIN
CIN1 11 12 1E-9
CIN2 21 5 1E-9
VSW1 71 0 PULSE(0 1 0 5u 5u 150u 330u)
VSW2 72 0 PULSE(0 1 165u 5u 5u 145u 330u)
EICML 75 0 VALUE={V(8)-1.6}
GGAIN 0 23 VALUE={(V(21,6)+1.58E-6*V(8,4))}
GPWR 8 4 VALUE={8E-6+7.5E-4*(0.5+0.5*TANH(10*(1.5-V(1,4))))}
DICML 21 75 DIN
SSD1 7 27 1 4 SSD
RINZ 6 4 5E9
* GB changed Rinz from 5e6 to 5e9 July 27, 2011
GVOS 0 23 28 0 -1E-5
RVOS 28 0 1 TC1=0.005
IVOS 0 28 1
CPAR1 12 4 1E-13
ESHD 76 0 VALUE={0.5+0.5*TANH(3*(V(1,4)-1.75))}
.MODEL SIN VSWITCH(RON=1k ROFF=1E11 VON=0.8 VOFF=0.2)
.MODEL SSD VSWITCH(RON=10 ROFF=1E11 VON=1.25 VOFF=1.75)
* GB changed Roff from 1e9 to 1e11 July 27, 2011
.MODEL NOUT NMOS(KP=1 VTO=10M)
.MODEL POUT PMOS(KP=1 VTO=-10M)
.MODEL DOUTP D(KF=0 RS=0 IS=1.6036E-8)
.MODEL DOUTN D(KF=0 RS=0 IS=1.6036E-8)
.MODEL DIN D(IS=1E-14 KF=0 RS=0)
.MODEL DVLIM D(BV=5 IS=1E-18 KF=0 RS=0 XTI=0)
.ENDS LTC2053

* Pinout: IN+ IN- VCC VEE OUT
.SUBCKT LTC6241 3 2 7 4 6
IBIASDEF2 0 2 7E-13
IBIASDEF1 0 3 1.2E-12
RG1 24 0 6E3
CG1 24 0 1E-6
GCMRR 0 51 50 4 6.31E-9
RCMRR 51 0 1E3
GPSRR 0 53 7 4 3.2E-9
RPSRR1 53 0 1E3
GG3 0 26 24 0 6.2832
RG3 26 0 0.159155
CG3 26 0 1.45E-6
RVNOI 41 0 1E3
CIN3 2 4 1.5pF
CIN2 4 3 1.5pF
DVNF 42 0 DVNOI
IVNF 0 42 1
DIN1 3 7 DIN
DIN2 2 7 DIN
GZP1 0 28 26 0 0.1
RZP1 28 29 10
RZP4 29 0 45
LZP2 29 0 3.11E-7
GG5 0 27 30 0 6.2832
RG5 27 0 0.159155
CG5 27 0 8E-8
DIN3 4 3 DIN
DIN4 4 2 DIN
IDUM1 41 0 0
DVNFX 43 0 DVNOIX
IVNFX 0 43 1
RINX 21 0 9.2
GG1 0 24 VALUE={15*TANH(V(21))}
MOUT1 77 27 6 6 NOUT
MOUT2 44 27 6 6 POUT
CIN4 7 3 1.5pF
CIN5 2 7 1.5pF
DVL1 25 24 DVLIM
DVL2 25 0 DVLIM
EICM 50 0 VALUE={(V(3)+V(2))/2}
CCMRR 50 52 3E-13
RCMRR2 52 51 3E3
RPSRR2 53 54 3E3
CPSRR1 54 7 5E-12
RPSRR3 53 55 3E3
CPSRR2 55 4 2E-11
GZP2 0 30 28 0 0.1
RZP2 30 31 10
RZP3 31 0 45
LZP1 31 0 3.11E-7
GITYP 7 4 VALUE={1.15E-3+1.4E-4*V(7,4)}
CIN1 3 2 0.5p
GLIM1 7 77 VALUE={MIN(0.03,0.0333*V(7,77))}
GLIM2 44 4 VALUE={MIN(0.03,0.0333*V(44,4))}
GB 0 27 VALUE={3.14*(V(7)+V(4))}
GINX 0 21 VALUE={V(3,2)+V(41)+V(42,43)+V(51)+V(53)-3E-5}
GINOI 2 3 41 0 8E-8
.MODEL NOUT NMOS(KF=0 KP=5 VTO=-10m)
.MODEL POUT PMOS(KF=0 KP=5 VTO=10m)
.MODEL DIN D(KF=0 RS=0)
.MODEL DVLIM D(BV=5 IS=1E-10 KF=0 RS=0)
.MODEL DVNOIX D(KF=0 RS=0)
.MODEL DVNOI D(RS=0 KF=3.15E-12)
.ENDS LTC6241

* Node List:  IN+(3) IN-(2) VCC(7) VEE(4) OUT(6)
.SUBCKT LT6220 3 2 7 4 6
RG1 24 0 79600
CG1 24 0 1E-9
RCMRR 54 0 1k
GG3 0 25 24 0 6.2832
RG3 25 0 0.159155
CG3 25 0 8E-7
RVNOI 41 0 6200
CIN3 2 4 1E-12
CIN2 4 3 1E-12
DVNF 42 0 DVNOI
IVNF 0 42 1
DIN1 3 7 DIN
DIN2 2 7 DIN
GZP1 0 27 25 0 0.1
RZP1 27 52 10
RZP4 52 0 120
LZP2 52 0 4E-7
DIN3 4 3 DIN
DIN4 4 2 DIN
IDUM1 41 0 0
DVNFX 43 0 DVNOIX
IVNFX 0 43 1
RINX 21 0 18
GG1 0 24 VALUE={0.02*TANH(V(21))}
MOUT1 31 28 30 30 NOUT
MOUT2 32 28 30 30 POUT
CIN4 7 3 1E-12
CIN5 2 7 1E-12
DVL1 51 24 DVLIM
DVL2 51 0 DVLIM
EICM 53 0 VALUE={(V(3)+V(2))/2}
CCMRR 53 54 1E-13
GILIM 30 6 VALUE={MIN(0.045,MAX(-0.045,V(30,6)))}
EOUT 28 0 VALUE={V(27)+0.5*(V(7)+V(4))}
GINOI1 0 3 41 0 8E-5
GINOI2 0 2 41 0 8E-5
GINX 0 21 VALUE={V(3,2)+V(42,43)+V(41)+V(54)}
DIN5 3 71 DIN
DIN6 71 2 DIN
DIN7 2 72 DIN
DIN8 72 3 DIN
GITYP 7 4 VALUE={8.33E-5*V(7,4)+3.33E-4}
GVOS 21 0 VALUE={240E-6-3E-5*V(53,4)-2E-4-2E-4*TANH(5*(V(53,7)+1.1))}
GIB1 0 3 VALUE={15E-9+3E-7+3E-7*TANH(5*(V(4,53)-0.1))}
GIB2 0 2 VALUE={-15E-9+3E-7+3E-7*TANH(5*(V(4,53)-0.1))}
GIB3 3 0 VALUE={1.25E-7+1.25E-7*TANH(5*(V(53,7)+1.2))}
GIB4 2 0 VALUE={1.25E-7+1.25E-7*TANH(5*(V(53,7)+1.2))}
ROUT1 7 31 23
ROUT2 4 32 16
.MODEL NOUT NMOS(KF=0 KP=5 VTO=-1m)
.MODEL POUT PMOS(KF=0 KP=5 VTO=1m)
.MODEL DIN D(IS=1E-13 KF=0 RS=0)
.MODEL DVLIM D(BV=8 IS=1E-10 KF=0 RS=0)
.MODEL DVNOIX D(KF=0 RS=0)
.MODEL DVNOI D(RS=0 KF=1.15E-11)
.ENDS LT6220

* Pinout: EN/ DGND INR AGND1 ING AGND2 INB V- OUTB V+ OUTG OUTR
* Node numbers below are named according to their respective pin on the IC
* V+ and V- pins are not repeated, which leaves 12 pins instead of 16
.SUBCKT LT6554 1 2 3 4 5 6 7 8 10 11 12 14
XAMP1 3 11 8 14 123 62 LT6554_BASE
XAMP2 5 11 8 12 223 62 LT6554_BASE
XAMP3 7 11 8 10 323 62 LT6554_BASE
DIN1 4 11 DIN
DIN2 8 4 DIN
DIN3 6 11 DIN
DIN4 8 6 DIN
RVNOI1 41 0 21E3
DVNF1 42 0 DVNOI
IVNF1 0 42 1
IDUM1 41 0 0
DVNFX1 43 0 DVNOIX
IVNFX1 0 43 1
GVNOI1 0 20 41 0 1
GVNOI2 20 0 42 43 1
IVOS1 0 20 21E-3
GINOI1 0 3 41 0 5E-4
RSHDN1 1 11 47E3
ESHD1 62 0 VALUE={0.5+0.5*TANH(5*(V(2,1)+1.45))}
IDGND1 11 2 10E-6
GPSRR1 0 65 11 8 1E-6
RPSRR1 65 0 1k
RPSRR2 65 66 3k
CPSRR1 66 11 5.3E-11
RPSRR3 65 67 3k
CPSRR2 67 8 5.3E-11
GINOI2 0 5 41 0 5E-4
GINOI3 0 7 41 0 5E-4
GPWR1 11 8 VALUE={10E-6+V(62)*(9.99E-4*V(11,8)+14.4E-3)}
GCT1 0 31 10 0 1E-9
RCT1 31 0 1k
CCT1 32 10 6E-17
RCT2 31 32 45k
GCT2 0 33 12 0 1E-9
RCT3 33 0 1k
CCT2 34 12 6E-17
RCT4 33 34 45k
GCT3 0 35 14 0 1E-9
RCT5 35 0 1k
CCT3 36 14 6E-17
RCT6 35 36 45k
GX1 0 123 VALUE={V(20)-V(65)+V(31)+V(33)}
GX2 0 223 VALUE={V(20)-V(65)+V(31)+V(35)}
GX3 0 323 VALUE={V(20)-V(65)+V(35)+V(33)}
RINP1 20 0 1
.MODEL DIN D(KF=0 RS=0)
.MODEL DVNOIX D(KF=0 RS=0)
.MODEL DVNOI D(RS=0 KF=4.31E-10)
.ENDS LT6554
*
.SUBCKT LT6554_BASE 3 7 4 6 23 62
IBIASDEF1 3 0 -17E-6
RG1 24 0 1500
CG1 24 0 1E-9
GG3 0 25 24 0 6.2832
RG3 25 26 0.159155
CG3 25 26 1.0E-9
DIN1 3 7 DIN
DIN2 4 3 DIN
GG1 0 24 VALUE={40*TANH(V(23))}
MOUT1 31 25 30 30 NOUT
MOUT2 32 25 30 30 POUT
GGAIN 0 23 3 2 1
RA 23 0 7.1E-2
DVL1 244 24 DVLIM
DVL2 244 0 DVLIM
RFB1 6 2 370
CIN 4 3 8E-13
MOUT3 7 7 31 31 NLIM
MOUT4 4 4 32 32 PLIM
CLD 4 6 8E-13
RDUM1 62 0 1E9
EVMID 26 0 VALUE={(V(7)+V(4))/2}
GOLIM 30 6 VALUE={V(62)*V(30,6)}
IDUM1 2 0 0
.MODEL NOUT NMOS(KF=0 KP=5 VTO=-1E-3)
.MODEL POUT PMOS(KF=0 KP=5 VTO=1E-3)
.MODEL NLIM NMOS(KF=0 KP=0.032 VTO=0.5)
.MODEL PLIM PMOS(KF=0 KP=0.032 VTO=-0.5)
.MODEL NSW NMOS(KP=5 VTO=1E-3)
.MODEL DIN D(KF=0 RS=0)
.MODEL DVLIM D(BV=5 IS=1E-10 KF=0 RS=0)
.ENDS LT6554_BASE
*
.subckt LTC1992-1 1 2 3 4 5 6 7 8
A1 IN-A IN+A 0 0 0 0 0 0 OTA g=0 in=1f
C5 3 IN-A 1.5p
C6 N006 0 50f Rpar=100K noiseless
G1 0 N010 N012 0 1m
M1 3 N005 4 4 N temp=27
M2 6 N005 4 4 P temp=27
C7 N005 0 2f
G4 0 N013 N004 2 200n
C8 N013 0 2f
M3 3 N013 5 5 N temp=27
M4 6 N013 5 5 P temp=27
G6 N013 0 N010 0 200n
D4 N013 5 Y
D5 5 N013 Y
D8 4 N005 Y
D9 N005 4 Y
G5 0 N005 N010 0 200n
G3 0 N005 N004 2 200n
R9 4 VCM 30k noiseless
R11 VCM 5 30k noiseless
B1 0 N006 I=10u*dnlim(uplim(V(IN+A),V(3)-1.2,.1), V(6)-.2, .1)+1n*V(IN+A)
B2 N006 0 I=10u*dnlim(uplim(V(IN-A),V(3)-1.19,.1), V(6)-.21, .1)+1n*V(IN-A)
C19 3 4 1p
C12 4 6 1p
C16 3 5 1p
C17 5 6 1p
D13 IN+A 6 DBIAS
D14 IN-A 6 DBIAS
A4 0 N003 0 0 0 0 N004 0 OTA G=6m Iout=200u en=30.9n enk=285 Cout=700p Vlow=-1e308 Vhigh=1e308
A2 0 N007 0 0 0 0 N012 0 OTA g=10.1u cout=700f iout=10u Vlow=-1e308 Vhigh=1e308
R2 3 7 200k
R4 7 6 200k
C10 N012 N017 60p noiseless
A3 0 N006 0 0 0 0 N007 0 OTA g=1u cout=40f en=30.9n enk=285 linear Rout=1Meg Vlow=-1e308 Vhigh=1e308
C13 N010 0 1p Rpar=1k noiseless
S3 0 N012 N013 3 swLim
R12 N012 0 500Meg noiseless
S1 N007 0 N016 0 swSlew
S2 0 N007 0 N016 swSlew
C18 N012 N016 10f
A5 N011 N017 N017 N017 N017 N017 N011 N017 OTA g=60u iout=1u Vlow=-1e308 Vhigh=1e308
R14 N011 N017 500k noiseless
C14 N016 0 10f Rpar=780k noiseless
R15 2 6 500Meg noiseless
B3 0 N003 I=10u*dnlim(uplim(V(2),V(3)-1.2,.1), V(6)+.4, .1)+1n*V(2)
C1 N003 0 500f Rpar=100K noiseless
B4 N003 0 I=10u*dnlim(uplim(V(VCM),V(3)-1.19,.1), V(6)+.39, .1)+1n*V(VCM)
D1 3 6 DPOW
S5 0 N012 N005 3 swLim
S4 N012 0 6 N013 swLim
S6 N012 0 6 N005 swLim
D10 N004 3 X
D11 6 N004 X
G7 0 N011 4 5 1m
C9 N011 0 100f Rpar=500 noiseless
R7 3 N005 10Meg noiseless
R10 N005 6 10Meg noiseless
R13 N013 6 10Meg noiseless
R6 3 N013 10Meg noiseless
D3 6 8 DCLP
D2 6 1 DCLP
D6 1 3 DCLP
D7 1 3 DCLP
C2 IN-A 6 1.5p
C3 3 IN+A 1.5p
C4 IN+A 6 1.5p
R1 IN-A 1 30k
R3 IN+A 8 30k
R5 4 IN-A 30k
R8 5 IN+A 30k
.model N VDMOS(Vto=-70m Kp=138m)
.model P VDMOS(Vto=70m Kp=138m pchan)
.model X D(Ron=1K Roff=10Meg Vfwd=200m epsilon=.1 noiseless)
.model Y D(Ron=10K Roff=1T Vfwd=.6 epsilon=10m noiseless)
.model DBIAS D(Ron=5K ilimit=2p epsilon=.5 noiseless)
.model DPOW D(Ron=1k ilimit=60.8u epsilon=.1 noiseless)
.model DCLP D(Ron=500 Roff=1G vfwd=.8 epsilon=.1 noiseless)
.model swSlew SW(Ron=10k Roff=1G vt= 5m vh=-2m)
.model swLim SW(Ron=10k Roff=100G vt=100m vh=-100m level=2 ilimit=20u oneway)
.ends LTC1992-1
*
.subckt LTC1992-10 1 2 3 4 5 6 7 8
A1 IN-A IN+A 0 0 0 0 0 0 OTA g=0 in=1f
C5 3 IN-A 1.5p
C6 N006 0 50f Rpar=100K noiseless
G1 0 N010 N012 0 1m
M1 3 N005 4 4 N temp=27
M2 6 N005 4 4 P temp=27
C7 N005 0 2f
G4 0 N013 N004 2 200n
C8 N013 0 2f
M3 3 N013 5 5 N temp=27
M4 6 N013 5 5 P temp=27
G6 N013 0 N010 0 200n
D4 N013 5 Y
D5 5 N013 Y
D8 4 N005 Y
D9 N005 4 Y
G5 0 N005 N010 0 200n
G3 0 N005 N004 2 200n
R9 4 VCM 30k noiseless
R11 VCM 5 30k noiseless
B1 0 N006 I=10u*dnlim(uplim(V(IN+A),V(3)-1.2,.1), V(6)-.2, .1)+1n*V(IN+A)
B2 N006 0 I=10u*dnlim(uplim(V(IN-A),V(3)-1.19,.1), V(6)-.21, .1)+1n*V(IN-A)
C19 3 4 1p
C12 4 6 1p
C16 3 5 1p
C17 5 6 1p
D13 IN+A 6 DBIAS
D14 IN-A 6 DBIAS
A4 0 N003 0 0 0 0 N004 0 OTA G=6m Iout=200u en=30.9n enk=285 Cout=700p Vlow=-1e308 Vhigh=1e308
A2 0 N007 0 0 0 0 N012 0 OTA g=10.1u cout=700f iout=10u Vlow=-1e308 Vhigh=1e308
R2 3 7 200k
R4 7 6 200k
C10 N012 N017 60p noiseless
A3 0 N006 0 0 0 0 N007 0 OTA g=1u cout=40f en=30.9n enk=285 linear Rout=1Meg Vlow=-1e308 Vhigh=1e308
C13 N010 0 1p Rpar=1k noiseless
S3 0 N012 N013 3 swLim
R12 N012 0 500Meg noiseless
S1 N007 0 N016 0 swSlew
S2 0 N007 0 N016 swSlew
C18 N012 N016 10f
A5 N011 N017 N017 N017 N017 N017 N011 N017 OTA g=60u iout=1u Vlow=-1e308 Vhigh=1e308
R14 N011 N017 500k noiseless
C14 N016 0 10f Rpar=780k noiseless
R15 2 6 500Meg noiseless
B3 0 N003 I=10u*dnlim(uplim(V(2),V(3)-1.2,.1), V(6)+.4, .1)+1n*V(2)
C1 N003 0 500f Rpar=100K noiseless
B4 N003 0 I=10u*dnlim(uplim(V(VCM),V(3)-1.19,.1), V(6)+.39, .1)+1n*V(VCM)
D1 3 6 DPOW
S5 0 N012 N005 3 swLim
S4 N012 0 6 N013 swLim
S6 N012 0 6 N005 swLim
D10 N004 3 X
D11 6 N004 X
G7 0 N011 4 5 1m
C9 N011 0 100f Rpar=500 noiseless
R7 3 N005 10Meg noiseless
R10 N005 6 10Meg noiseless
R13 N013 6 10Meg noiseless
R6 3 N013 10Meg noiseless
D3 6 8 DCLP
D2 6 1 DCLP
D6 1 3 DCLP
D7 1 3 DCLP
C2 IN-A 6 1.5p
C3 3 IN+A 1.5p
C4 IN+A 6 1.5p
R1 IN-A 1 15k
R3 IN+A 8 15k
R5 4 IN-A 150k
R8 5 IN+A 150k
.model N VDMOS(Vto=-70m Kp=138m)
.model P VDMOS(Vto=70m Kp=138m pchan)
.model X D(Ron=1K Roff=10Meg Vfwd=200m epsilon=.1 noiseless)
.model Y D(Ron=10K Roff=1T Vfwd=.6 epsilon=10m noiseless)
.model DBIAS D(Ron=5K ilimit=2p epsilon=.5 noiseless)
.model DPOW D(Ron=1k ilimit=60.8u epsilon=.1 noiseless)
.model DCLP D(Ron=500 Roff=1G vfwd=.8 epsilon=.1 noiseless)
.model swSlew SW(Ron=10k Roff=1G vt= 5m vh=-2m)
.model swLim SW(Ron=10k Roff=100G vt=100m vh=-100m level=2 ilimit=20u oneway)
.ends LTC1992-10
*
.subckt LTC1992 1 2 3 4 5 6 7 8
A1 1 8 0 0 0 0 0 0 OTA g=0 in=1f
C5 3 1 1.5p
C6 N005 0 50f Rpar=100K noiseless
G1 0 XD2 XD1 0 1m
M1 3 XOP 4 4 N temp=27
M2 6 XOP 4 4 P temp=27
C7 XOP 0 2f
G4 0 XON XC1 2 200n
C8 XON 0 2f
M3 3 XON 5 5 N temp=27
M4 6 XON 5 5 P temp=27
G6 XON 0 XD2 0 200n
D4 XON 5 Y
D5 5 XON Y
D8 4 XOP Y
D9 XOP 4 Y
G5 0 XOP XD2 0 200n
G3 0 XOP XC1 2 200n
R9 4 VCM 30k noiseless
R11 VCM 5 30k noiseless
B1 0 N005 I=10u*dnlim(uplim(V(8),V(3)-1.2,.1), V(6)-.2, .1)+1n*V(8)
B2 N005 0 I=10u*dnlim(uplim(V(1),V(3)-1.19,.1), V(6)-.21, .1)+1n*V(1)
C19 3 4 1p
C12 4 6 1p
C16 3 5 1p
C17 5 6 1p
D13 8 6 DBIAS
D14 1 6 DBIAS
A4 0 XC0 0 0 0 0 XC1 0 OTA G=6m Iout=200u en=30.9n enk=285 Cout=700p Vlow=-1e308 Vhigh=1e308
A2 0 N006 0 0 0 0 XD1 0 OTA g=10.1u cout=700f iout=10u Vlow=-1e308 Vhigh=1e308
R2 3 7 200k
R4 7 6 200k
C10 XD1 N012 60p noiseless
A3 0 N005 0 0 0 0 N006 0 OTA g=1u cout=40f en=30.9n enk=285 linear Rout=1Meg Vlow=-1e308 Vhigh=1e308
C13 XD2 0 1p Rpar=1k noiseless
S3 0 XD1 XON 3 swLim
R12 XD1 0 500Meg noiseless
S1 N006 0 N011 0 swSlew
S2 0 N006 0 N011 swSlew
C18 XD1 N011 10f
A5 N008 N012 N012 N012 N012 N012 N008 N012 OTA g=60u iout=1u Vlow=-1e308 Vhigh=1e308
R14 N008 N012 500k noiseless
C14 N011 0 10f Rpar=780k noiseless
R15 2 6 500Meg noiseless
B3 0 XC0 I=10u*dnlim(uplim(V(2),V(3)-1.2,.1), V(6)+.4, .1)+1n*V(2)
C1 XC0 0 500f Rpar=100K noiseless
B4 XC0 0 I=10u*dnlim(uplim(V(VCM),V(3)-1.19,.1), V(6)+.39, .1)+1n*V(VCM)
D1 3 6 DPOW
S5 0 XD1 XOP 3 swLim
S4 XD1 0 6 XON swLim
S6 XD1 0 6 XOP swLim
D10 XC1 3 X
D11 6 XC1 X
G7 0 N008 4 5 1m
C9 N008 0 100f Rpar=500 noiseless
R7 3 XOP 10Meg noiseless
R10 XOP 6 10Meg noiseless
R13 XON 6 10Meg noiseless
R6 3 XON 10Meg noiseless
D3 6 8 DCLP
D2 6 1 DCLP
D6 1 3 DCLP
D7 1 3 DCLP
C2 1 6 1.5p
C3 3 8 1.5p
C4 8 6 1.5p
.model N VDMOS(Vto=-70m Kp=138m)
.model P VDMOS(Vto=70m Kp=138m pchan)
.model X D(Ron=1K Roff=10Meg Vfwd=200m epsilon=.1 noiseless)
.model Y D(Ron=10K Roff=1T Vfwd=.6 epsilon=10m noiseless)
.model DBIAS D(Ron=5K ilimit=2p epsilon=.5 noiseless)
.model DPOW D(Ron=1k ilimit=60.8u epsilon=.1 noiseless)
.model DCLP D(Ron=500 Roff=1G vfwd=.8 epsilon=.1 noiseless)
.model swSlew SW(Ron=10k Roff=1G vt= 5m vh=-2m)
.model swLim SW(Ron=10k Roff=100G vt=100m vh=-100m level=2 ilimit=20u oneway)
.ends LTC1992
*
.subckt LTC1992-2 1 2 3 4 5 6 7 8
A1 IN-A IN+A 0 0 0 0 0 0 OTA g=0 in=1f
C5 3 IN-A 1.5p
C6 N006 0 50f Rpar=100K noiseless
G1 0 N010 N012 0 1m
M1 3 N005 4 4 N temp=27
M2 6 N005 4 4 P temp=27
C7 N005 0 2f
G4 0 N013 N004 2 200n
C8 N013 0 2f
M3 3 N013 5 5 N temp=27
M4 6 N013 5 5 P temp=27
G6 N013 0 N010 0 200n
D4 N013 5 Y
D5 5 N013 Y
D8 4 N005 Y
D9 N005 4 Y
G5 0 N005 N010 0 200n
G3 0 N005 N004 2 200n
R9 4 VCM 30k noiseless
R11 VCM 5 30k noiseless
B1 0 N006 I=10u*dnlim(uplim(V(IN+A),V(3)-1.2,.1), V(6)-.2, .1)+1n*V(IN+A)
B2 N006 0 I=10u*dnlim(uplim(V(IN-A),V(3)-1.19,.1), V(6)-.21, .1)+1n*V(IN-A)
C19 3 4 1p
C12 4 6 1p
C16 3 5 1p
C17 5 6 1p
D13 IN+A 6 DBIAS
D14 IN-A 6 DBIAS
A4 0 N003 0 0 0 0 N004 0 OTA G=6m Iout=200u en=30.9n enk=285 Cout=700p Vlow=-1e308 Vhigh=1e308
A2 0 N007 0 0 0 0 N012 0 OTA g=10.1u cout=700f iout=10u Vlow=-1e308 Vhigh=1e308
R2 3 7 200k
R4 7 6 200k
C10 N012 N017 60p noiseless
A3 0 N006 0 0 0 0 N007 0 OTA g=1u cout=40f en=30.9n enk=285 linear Rout=1Meg Vlow=-1e308 Vhigh=1e308
C13 N010 0 1p Rpar=1k noiseless
S3 0 N012 N013 3 swLim
R12 N012 0 500Meg noiseless
S1 N007 0 N016 0 swSlew
S2 0 N007 0 N016 swSlew
C18 N012 N016 10f
A5 N011 N017 N017 N017 N017 N017 N011 N017 OTA g=60u iout=1u Vlow=-1e308 Vhigh=1e308
R14 N011 N017 500k noiseless
C14 N016 0 10f Rpar=780k noiseless
R15 2 6 500Meg noiseless
B3 0 N003 I=10u*dnlim(uplim(V(2),V(3)-1.2,.1), V(6)+.4, .1)+1n*V(2)
C1 N003 0 500f Rpar=100K noiseless
B4 N003 0 I=10u*dnlim(uplim(V(VCM),V(3)-1.19,.1), V(6)+.39, .1)+1n*V(VCM)
D1 3 6 DPOW
S5 0 N012 N005 3 swLim
S4 N012 0 6 N013 swLim
S6 N012 0 6 N005 swLim
D10 N004 3 X
D11 6 N004 X
G7 0 N011 4 5 1m
C9 N011 0 100f Rpar=500 noiseless
R7 3 N005 10Meg noiseless
R10 N005 6 10Meg noiseless
R13 N013 6 10Meg noiseless
R6 3 N013 10Meg noiseless
D3 6 8 DCLP
D2 6 1 DCLP
D6 1 3 DCLP
D7 1 3 DCLP
C2 IN-A 6 1.5p
C3 3 IN+A 1.5p
C4 IN+A 6 1.5p
R1 IN-A 1 30k
R3 IN+A 8 30k
R5 4 IN-A 60k
R8 5 IN+A 60k
.model N VDMOS(Vto=-70m Kp=138m)
.model P VDMOS(Vto=70m Kp=138m pchan)
.model X D(Ron=1K Roff=10Meg Vfwd=200m epsilon=.1 noiseless)
.model Y D(Ron=10K Roff=1T Vfwd=.6 epsilon=10m noiseless)
.model DBIAS D(Ron=5K ilimit=2p epsilon=.5 noiseless)
.model DPOW D(Ron=1k ilimit=60.8u epsilon=.1 noiseless)
.model DCLP D(Ron=500 Roff=1G vfwd=.8 epsilon=.1 noiseless)
.model swSlew SW(Ron=10k Roff=1G vt= 5m vh=-2m)
.model swLim SW(Ron=10k Roff=100G vt=100m vh=-100m level=2 ilimit=20u oneway)
.ends LTC1992-2
*
.subckt LTC1992-5 1 2 3 4 5 6 7 8
A1 IN-A IN+A 0 0 0 0 0 0 OTA g=0 in=1f
C5 3 IN-A 1.5p
C6 N006 0 50f Rpar=100K noiseless
G1 0 N010 N012 0 1m
M1 3 N005 4 4 N temp=27
M2 6 N005 4 4 P temp=27
C7 N005 0 2f
G4 0 N013 N004 2 200n
C8 N013 0 2f
M3 3 N013 5 5 N temp=27
M4 6 N013 5 5 P temp=27
G6 N013 0 N010 0 200n
D4 N013 5 Y
D5 5 N013 Y
D8 4 N005 Y
D9 N005 4 Y
G5 0 N005 N010 0 200n
G3 0 N005 N004 2 200n
R9 4 VCM 30k noiseless
R11 VCM 5 30k noiseless
B1 0 N006 I=10u*dnlim(uplim(V(IN+A),V(3)-1.2,.1), V(6)-.2, .1)+1n*V(IN+A)
B2 N006 0 I=10u*dnlim(uplim(V(IN-A),V(3)-1.19,.1), V(6)-.21, .1)+1n*V(IN-A)
C19 3 4 1p
C12 4 6 1p
C16 3 5 1p
C17 5 6 1p
D13 IN+A 6 DBIAS
D14 IN-A 6 DBIAS
A4 0 N003 0 0 0 0 N004 0 OTA G=6m Iout=200u en=30.9n enk=285 Cout=700p Vlow=-1e308 Vhigh=1e308
A2 0 N007 0 0 0 0 N012 0 OTA g=10.1u cout=700f iout=10u Vlow=-1e308 Vhigh=1e308
R2 3 7 200k
R4 7 6 200k
C10 N012 N017 60p noiseless
A3 0 N006 0 0 0 0 N007 0 OTA g=1u cout=40f en=30.9n enk=285 linear Rout=1Meg Vlow=-1e308 Vhigh=1e308
C13 N010 0 1p Rpar=1k noiseless
S3 0 N012 N013 3 swLim
R12 N012 0 500Meg noiseless
S1 N007 0 N016 0 swSlew
S2 0 N007 0 N016 swSlew
C18 N012 N016 10f
A5 N011 N017 N017 N017 N017 N017 N011 N017 OTA g=60u iout=1u Vlow=-1e308 Vhigh=1e308
R14 N011 N017 500k noiseless
C14 N016 0 10f Rpar=780k noiseless
R15 2 6 500Meg noiseless
B3 0 N003 I=10u*dnlim(uplim(V(2),V(3)-1.2,.1), V(6)+.4, .1)+1n*V(2)
C1 N003 0 500f Rpar=100K noiseless
B4 N003 0 I=10u*dnlim(uplim(V(VCM),V(3)-1.19,.1), V(6)+.39, .1)+1n*V(VCM)
D1 3 6 DPOW
S5 0 N012 N005 3 swLim
S4 N012 0 6 N013 swLim
S6 N012 0 6 N005 swLim
D10 N004 3 X
D11 6 N004 X
G7 0 N011 4 5 1m
C9 N011 0 100f Rpar=500 noiseless
R7 3 N005 10Meg noiseless
R10 N005 6 10Meg noiseless
R13 N013 6 10Meg noiseless
R6 3 N013 10Meg noiseless
D3 6 8 DCLP
D2 6 1 DCLP
D6 1 3 DCLP
D7 1 3 DCLP
C2 IN-A 6 1.5p
C3 3 IN+A 1.5p
C4 IN+A 6 1.5p
R1 IN-A 1 30k
R3 IN+A 8 30k
R5 4 IN-A 150k
R8 5 IN+A 150k
.model N VDMOS(Vto=-70m Kp=138m)
.model P VDMOS(Vto=70m Kp=138m pchan)
.model X D(Ron=1K Roff=10Meg Vfwd=200m epsilon=.1 noiseless)
.model Y D(Ron=10K Roff=1T Vfwd=.6 epsilon=10m noiseless)
.model DBIAS D(Ron=5K ilimit=2p epsilon=.5 noiseless)
.model DPOW D(Ron=1k ilimit=60.8u epsilon=.1 noiseless)
.model DCLP D(Ron=500 Roff=1G vfwd=.8 epsilon=.1 noiseless)
.model swSlew SW(Ron=10k Roff=1G vt= 5m vh=-2m)
.model swLim SW(Ron=10k Roff=100G vt=100m vh=-100m level=2 ilimit=20u oneway)
.ends LTC1992-5
*
.subckt LTC6104 1 2 3 4 5 6 7 8
M1 1 N009 7 7 P Temp=27
M2 N013 N010 6 6 P Temp=27
D1 N006 N005 X
D2 N007 N008 X
R1 8 N005 5K noiseless
D3 5 N006 Y
D4 5 N007 Y
D5 7 5 Z
D6 6 5 Z
Q3 N013 N013 4 0 N Temp=27
Q4 1 N013 4 0 N Temp=27
A2 N007 N008 6 6 6 6 N010 6 OTA Vhigh=0 Vlow=-2 g=10m Iout=100u Rout=1Meg
D7 4 1 Z
R2 7 N006 5K noiseless
R3 6 N007 5K noiseless
R4 5 N008 5K noiseless
A1 N006 N005 7 7 7 7 N009 7 OTA Vhigh=0 Vlow=-2 g=10m Iout=100u Rout=1Meg
D8 5 4 A
R9 5 4 420K
D10 6 4 B
D11 7 4 B
D12 8 4 B
.model X D(Ron=100 Roff=10G Vfwd=.6 Vrev=.6 epsilon=.1 Revepsilon=.1 noiseless)
.model Y D(Ron=100 Roff=1G Vfwd=1.8 epsilon=1 noiseless)
.model Z D(Ron=100 Roff=1G Vfwd=1 epsilon=1 Vrev=10 RevEpsilon=1 noiseless)
.model P VDMOS(Vto=-.3 Kp=10m Cgs=2.2n pchan)
.model N NPN(Cje=3p Cjc=3p)
.model A D(Ron=3.5K epsilon=1.2 Ilimit=500u noiseless)
.model B D(Ron=20Meg Ilimit=100n epsilon=2 noiseless)
.ends LTC6104
*
.subckt LT1468-2 1 2 3 4 5
A1 2 1 0 0 0 0 0 0 OTA g=0 in=10f ink=7
M1 3 N005 5 5 N temp=27
M2 4 N005 5 5 P temp=27
C3 3 5 .5p
C4 5 4 .5p
B1 0 N006 I=10u*dnlim(uplim(V(1),V(3)-1.3,.1), V(4)+.5, .1)+1n*V(1)
B2 N006 0 I=10u*dnlim(uplim(V(2),V(3)-1.29,.1), V(4)+0.49, .1)+1n*V(2)
C6 3 1 2p Rser=100 Rpar=480Meg noiseless
C7 1 4 2p noiseless Rser=100 Rpar=480Meg
C8 2 4 2p Rser=100 Rpar=480Meg noiseless
C9 3 2 2p Rser=100 Rpar=480Meg noiseless
C10 N006 0 18.2f Rpar=100K noiseless
D1 N005 5 Y
D6 5 N005 Y
D7 3 4 DP
C11 2 1 1p Rpar=150k noiseless
A2 0 N006 0 0 0 0 N007 0 OTA g=42.1u Iout=1.045u Cout=33.3f en=5n enk=40 Vhigh=1e308 Vlow=-1e308
D2 N007 3 XU
D3 4 N007 XD
G2 0 N004 N007 0 1m
L2 N004 0 24.65µ Rpar=6k Rser=1.2k Cpar=162f noiseless
G1 0 N005 N004 0 1µ
C1 N005 0 125.3f Rpar=1Meg
C2 5 N005 160f Rser=10k
D4 2 1 DI
.model XU D(Ron=1K Roff=100G Vfwd=-1.3 epsilon=.1 noiseless)
.model XD D(Ron=1K Roff=100G Vfwd=-1.3 epsilon=.1 noiseless)
.model Y D(Ron=1k Roff=1T Vfwd=.28 epsilon=.1 noiseless)
.model N VDMOS(Vto=-50m Kp=550m)
.model P VDMOS(Vto=50m Kp=550m pchan)
.model DP D(Roff=1T Ron=1k Vfwd=0.5 ilimit=3.413m noiseless)
.model DI D(Ron=250 Roff=1T Vfwd=1 Vrev=1 noiseless)
.ends LT1468-2
*
.subckt LT6210 1 2 3 4 5 6
R2 N006 N008 10.03K noiseless
R3 N008 N012 10K noiseless
Q1 N005 N006 2 0 N temp=27
Q2 N013 N012 2 0 P temp=27
M1 3 N007 5 5 N temp=27
M2 4 N007 5 5 P temp=27
C4 3 5 1p
C5 5 4 1p
R4 3 N001 15K noiseless
R8 N001 6 8K noiseless
G2 3 N006 N001 6 30µ
G1 N012 4 N001 6 30µ
D1 3 N006 1uA m=60
D2 N012 4 1uA m=60
R19 3 N005 100 noiseless
R20 N013 4 100 noiseless
G5 3 N010 3 N005 10m
G6 N010 4 N013 4 10m
C3 N009 0 .75p
D3 N009 3 X
D4 4 N009 X
G3 0 N007 N009 0 10µ
C1 N007 0 7f Rpar=100K noiseless
R5 N010 0 1.6K noiseless
G4 0 N009 N010 0 625µ
A1 6 N001 N010 N010 N010 N010 0 N010 VARISTOR
C2 3 2 .15p
C6 3 1 1p
C7 2 4 .15p
C8 1 4 1p
G7 3 4 N001 6 table(0 0 39m 40u .506 2.3m .93 3.5m)
A2 0 0 1 1 1 1 N008 1 OTA G=.1 Rout=10 Linear Vhigh=100 Vlow=-100 en=14.4n-165u*I(R8)+.84*I(R8)*I(R8) enk=20
A3 0 1 0 0 0 0 0 0 OTA in=1.2p ink=30
A4 0 2 0 0 0 0 0 0 OTA in=16p ink=8
.model N NPN(Cje=.56p Cjc=.15p noiseless)
.model P PNP(Cje=.56p Cjc=.15p noiseless)
.model N VDMOS(Vto=-50m Kp=150m)
.model P VDMOS(Vto=50m Kp=150m pchan)
.model 1uA D(Ron=100K epsilon=.5 Ilimit=1u noiseless)
.model X D(Ron=1K Roff=100Meg epsilon=1 Vfwd=1 noiseless)
.ends LT6210
*
.subckt LTC6252 1 2 3 4 5 6 ; P.K.
GG1 0 p2 p1 0 6.2832
RG1 p2 0 0.159155 noiseless
CG1 p2 0 124n
RG2 p1 0 3.4 noiseless
CG2 p1 0 1µ
RG4 g1 0 1 noiseless
IBIAS1 4 6 100nA
Cdm1 4 3 1.6p
DIN1 4 6 DIN
DIN2 2 4 DIN
Ccm1 6 4 0.4p
GG3 0 z1 p5 0 1
GG4 0 p1 VALUE={280*TANH(V(g1))}
GG5 0 g1 VALUE={{25}*(V(3,4)+V(VNS)+V(VOF))+V(VCM)+V(VPR)}
GCM1 0 VCM N003 4 1E-6
RCM1 VCM 0 43 noiseless
EICM1 N003 0 VALUE={(V(3)+V(4))/2}
RVNOI1 N3 0 475
DVNF1 N2 0 DVNOI
IVNF1 0 N2 1
IDUM1 0 N3 0
DVNFX1 N1 0 DVNOIX
IVNFX1 0 N1 1
GPSRR1 0 VPR 6 2 250E-6
RPSRR1 VPR 0 10 noiseless
RPSRR2 VPR N004 1 noiseless
CPSRR1 N004 6 25p
RPSRR3 VPR N005 1 noiseless
CPSRR2 N005 2 25p
Ccm3 VCM N003 1p
IBIAS2 3 6 130nA
DIN3 3 6 DIN
DIN4 2 3 DIN
Ccm2 6 3 0.4p
RN1 VNS 0 1 noiseless
GG7 0 VNS VALUE={V(N2,N1)+V(N3)}
MOUT1 Vp1 N016 N018 N018 NOUT
MOUT2 Vm1 N023 N018 N018 POUT
GLIM1 6 Vp1 VALUE={MIN({35m},V(6,Vp1))}
GLIM2 Vm1 2 VALUE={MIN({40m},V(Vm1,2))}
L1 N010 0 3.4n
RZ1 N010 z1 1 noiseless
RG6 N010 0 70 noiseless
S2 N016 z1 VH 0 SW1
DVL1 P001 0 DVLIM
DVL2 P001 p1 DVLIM
S3 N023 z1 VH 0 SW1
Lzout1 N018 1 25n Rser=13.3 Rpar=16
G3 6 4 2 N011 1E-3
G4 6 3 2 N025 1E-3
DVNF2 2 N025 DVNOIZ
DVNF3 N011 2 DVNOIZ
DIN5 N020 4 DIN
DIN7 3 N020 DIN
DIN8 N019 3 DIN
DIN9 4 N019 DIN
RG3 N011 2 1k
RG5 2 N025 1k
GG2 0 p3 p2 0 6.2832
RG7 p3 0 0.159155 noiseless
CG3 p3 0 430p
GG6 0 p4 p3 0 6.2832
RG8 p4 0 0.159155 noiseless
CG4 p4 0 250p
GG8 0 p5 p4 0 6.2832
RG9 p5 0 0.159155 noiseless
CG5 p5 0 250p
S4 N016 6 VL 0 SW1
S5 N023 2 VL 0 SW1
G2 6 2 N002 0 1
Rsh2 N001 N002 1k
S6 N009 N002 N006 0 SW1
Rsw3 N007 N006 1.2k
Csw2 N006 0 1n
A3 5 N008 0 0 0 0 N007 0 SCHMITT Vhigh=1 Vlow=0 Td=2u Vt=0 Vh=1m
Vsw4 N008 2 1.1
Rsw4 6 5 2.5MEG noiseless
DIN10 N006 N007 DIN
A4 N006 0 0 0 0 VL VH 0 SCHMITT Vhigh=1 Vlow=0 Td=0 Vt=0.7 Vh=1m
Vsw5 N001 0 42µ
Vsw6 N009 0 3.2m
VOSADD VOF 0 -0.628m
.MODEL DIN D(KF=0 RS=0)
.MODEL DVLIM D(BV=16   IS=1E-3  KF=0 RS=0)
.MODEL DVNOIX  D(KF=70E-12  RS=0)
.MODEL DVNOI    D(KF=1E-12    RS=0)
.MODEL DVNOIZ  D(KF=3.4E-6   RS=0)
.MODEL  SW1  SW(Ron=1 Roff=1G Vt=0.7 Vh=1m)
.MODEL NOUT NMOS (KP=25k  VTO=0)
.MODEL POUT PMOS (KP=25k   VTO=0)
.ends LTC6252
*
.subckt LTC6253 1 2 3 4 5 ; P.K.
GG1 0 p2 p1 0 6.2832
RG1 p2 0 0.159155 noiseless
CG1 p2 0 124n
RG2 p1 0 3.4 noiseless
CG2 p1 0 1µ
RG4 g1 0 1 noiseless
IBIAS1 4 5 100nA
Cdm1 4 3 1.6p
DIN1 4 5 DIN
DIN2 2 4 DIN
Ccm1 5 4 0.4p
GG3 0 z1 p5 0 1
GG4 0 p1 VALUE={280*TANH(V(g1))}
GG5 0 g1 VALUE={{25}*(V(3,4)+V(VNS)+V(VOF))+V(VCM)+V(VPR)}
GCM1 0 VCM N001 4 1E-6
RCM1 VCM 0 43 noiseless
EICM1 N001 0 VALUE={(V(3)+V(4))/2}
RVNOI1 N3 0 475
DVNF1 N2 0 DVNOI
IVNF1 0 N2 1
IDUM1 0 N3 0
DVNFX1 N1 0 DVNOIX
IVNFX1 0 N1 1
GPSRR1 0 VPR 5 2 250E-6
RPSRR1 VPR 0 10 noiseless
RPSRR2 VPR N002 1 noiseless
CPSRR1 N002 5 25p
RPSRR3 VPR N003 1 noiseless
CPSRR2 N003 2 25p
Ccm3 VCM N001 1p
IBIAS2 3 5 130nA
DIN3 3 5 DIN
DIN4 2 3 DIN
Ccm2 5 3 0.4p
RN1 VNS 0 1 noiseless
GG7 0 VNS VALUE={V(N2,N1)+V(N3)}
MOUT1 Vp1 z1 N010 N010 NOUT
MOUT2 Vm1 z1 N010 N010 POUT
GLIM1 5 Vp1 VALUE={MIN({35m},V(5,Vp1))}
GLIM2 Vm1 2 VALUE={MIN({40m},V(Vm1,2))}
L1 N004 0 3.4n
RZ1 N004 z1 1 noiseless
RG6 N004 0 70 noiseless
DVL1 P001 0 DVLIM
DVL2 P001 p1 DVLIM
Lzout1 N010 1 25n Rser=13.3 Rpar=16
G3 5 4 2 N005 1E-3
G4 5 3 2 N016 1E-3
DVNF2 2 N016 DVNOIZ
DVNF3 N005 2 DVNOIZ
DIN5 N013 4 DIN
DIN7 3 N013 DIN
DIN8 N012 3 DIN
DIN9 4 N012 DIN
RG3 N005 2 1k
RG5 2 N016 1k
GG2 0 p3 p2 0 6.2832
RG7 p3 0 0.159155 noiseless
CG3 p3 0 430p
GG6 0 p4 p3 0 6.2832
RG8 p4 0 0.159155 noiseless
CG4 p4 0 250p
GG8 0 p5 p4 0 6.2832
RG9 p5 0 0.159155 noiseless
CG5 p5 0 250p
VOSADD VOF 0 -0.628m
.MODEL DIN D(KF=0 RS=0)
.MODEL DVLIM D(BV=16 IS=1E-3 KF=0 RS=0)
.MODEL DVNOIX D(KF=70E-12)
.MODEL DVNOI D(KF=1E-12)
.MODEL DVNOIZ D(KF=3.4E-6)
.MODEL NOUT NMOS(KP=25k)
.MODEL POUT PMOS(KP=25k)
.ends LTC6253
*
.subckt LTC6254 1 2 3 4 5 ; P.K.
GG1 0 p2 p1 0 6.2832
RG1 p2 0 0.159155 noiseless
CG1 p2 0 124n
RG2 p1 0 3.4 noiseless
CG2 p1 0 1µ
RG4 g1 0 1 noiseless
IBIAS1 4 5 100nA
Cdm1 4 3 1.6p
DIN1 4 5 DIN
DIN2 2 4 DIN
Ccm1 5 4 0.4p
GG3 0 z1 p5 0 1
GG4 0 p1 VALUE={280*TANH(V(g1))}
GG5 0 g1 VALUE={{25}*(V(3,4)+V(VNS)+V(VOF))+V(VCM)+V(VPR)}
GCM1 0 VCM N001 4 1E-6
RCM1 VCM 0 43 noiseless
EICM1 N001 0 VALUE={(V(3)+V(4))/2}
RVNOI1 N3 0 475
DVNF1 N2 0 DVNOI
IVNF1 0 N2 1
IDUM1 0 N3 0
DVNFX1 N1 0 DVNOIX
IVNFX1 0 N1 1
GPSRR1 0 VPR 5 2 250E-6
RPSRR1 VPR 0 10 noiseless
RPSRR2 VPR N002 1 noiseless
CPSRR1 N002 5 25p
RPSRR3 VPR N003 1 noiseless
CPSRR2 N003 2 25p
Ccm3 VCM N001 1p
IBIAS2 3 5 130nA
DIN3 3 5 DIN
DIN4 2 3 DIN
Ccm2 5 3 0.4p