* Copyright © Linear Technology Corp. 12/20/06. All rights reserved.

.subckt LT6000 1 2 3 4 5 6
A1 2 1 0 0 0 0 0 0 OTA g=0 in=24.7f ink=22
B1 0 X0 I=10u*dnlim(uplim(V(1),V(3)+.15,.1), V(4)-.15, .1)+1n*V(1)-90.33n
B2 X0 0 I=10u*dnlim(uplim(V(2),V(3)+16,.1), V(4)-.16, .1)+1n*V(2)
C10 X0 0 500f Rpar=100K noiseless
M1 5 N008 4 4 NI temp=27
C2 3 5 1p Rpar=1g noiseless
D5 N008 4 DLIMN1
M2 5 VP 3 3 PI temp=27
D8 3 VP DLIMP
C3 3 VP 10p Rser=400k noiseless
A3 N005 N006 4 4 4 4 VP 4 OTA g=200n ref=-1.453 linear vlow=-1e308 vhigh=1e308
C11 5 4 1p Rpar=1g noiseless
C12 N008 4 100f Rser=250k noiseless
D6 N008 4 DLIMN2
A4 0 X0 0 0 0 0 X1 0 OTA g=1m linear en=75n enk=.44 Vhigh=1e308 Vlow=-1e308
C16 N006 5 6p
A5 X1 0 N005 N005 N005 N005 N006 N005 OTA g=2.3u asym isource=130n isink=-90n Vhigh=1e308 Vlow=-1e308
D12 1 3 DPROT
D13 2 3 DPROT
G1 4 N008 N006 N005 14n
D9 N006 N005 DLIM
C14 VP 5 400f
B3 VP 4 I=2n*V(VP,5)/dnlim(V(3,4),2,.1)
C7 3 1 2.5p Rser=2k Rpar=7G noiseless
C13 3 4 1000p
C15 VP N008 1p Rser=250k noiseless
S1 N006 N005 0 N004 SHUT
S2 3 VP 0 N004 SHUT
S3 N008 4 0 N004 SHUT
C1 X1 0 100p Rpar=1k noiseless
C21 N004 0 12p
C17 3 6 100f Rpar=7Meg noiseless
G2 0 N005 4 0 .5m
G4 0 N005 3 0 .5m
C18 N005 0 200p Rpar=1K noiseless
C4 3 2 2.5p Rser=2k Rpar=7G noiseless
C6 1 4 2.5p Rser=2k Rpar=7G noiseless
C8 2 4 2.5p Rser=2k Rpar=7G noiseless
D1 2 1 DIN
S5 1 3 N004 0 SBIAS
S6 2 3 N004 0 SBIAS
S7 0 N004 N005 6 SHUTI
D2 4 6 DPROT
A6 4 3 0 0 0 0 N004 0 OTA g=60n iout=80n Vlow=-1e308 Vhigh=1e308
.model DIN D(Ron=1k Roff=25Meg Vfwd=1.5 epsilon=.1 Vrev=1.5 revepsilon=.1 noiseless)
.model DPROT D(Ron=1k Roff=24G Vfwd=1 epsilon=10m noiseless)
.model SBIAS SW(level=2 Ron=50Meg Roff=100G vt=0.5 vh=-.1 ilimit 2n vser=.6 )
.model SHUT SW(Ron=1 Roff=100G vt=-1 vh=-.3 noiseless)
.model SHUTI SW(Ron=100k Roff=20Meg vt=.2 vh=-50m noiseless)
.model NI VDMOS(Vto=300m kp=15m lambda=.01)
.model PI VDMOS(Vto=-300m Kp=30m lambda=.01 pchan is=0)
.model DLIM D(Ron=100k Roff=70Meg Vfwd=3 Vrev=1 epsilon=10m revepsilon=10m noiseless)
.model DSLIM D(Ron=100 Roff=1G Vfwd=1.5 Vrev=.1 epsilon=.1 revepsilon=.1 noiseless)
.model DLIMN1 D(Ron=200k Roff=415Meg Vfwd=1.2 Vrev=-330m epsilon=.1  noiseless)
.model DLIMN2 D(Ron=5Meg Roff=1G Vfwd=-20m epsilon=50m ilimit=19.4n noiseless)
.model DLIMP D(Ron=100k Roff=100Meg Vfwd=1 Vrev=-.3  epsilon=10m revepsilon=10m noiseless)
.ends LT6000
*
.subckt LT6002 1 2 3 4 5
A1 2 1 0 0 0 0 0 0 OTA g=0 in=24.7f ink=22
B1 0 X0 I=10u*dnlim(uplim(V(1),V(3)+.15,.1), V(4)-.15, .1)+1n*V(1)-90.33n
B2 X0 0 I=10u*dnlim(uplim(V(2),V(3)+16,.1), V(4)-.16, .1)+1n*V(2)
C10 X0 0 500f Rpar=100K noiseless
M1 5 N008 4 4 NI temp=27
C2 3 5 1p Rpar=1g noiseless
D5 N008 4 DLIMN1
M2 5 VP 3 3 PI temp=27
D8 3 VP DLIMP
C3 3 VP 10p Rser=400k noiseless
A3 N005 N006 4 4 4 4 VP 4 OTA g=200n ref=-1.453 linear vlow=-1e308 vhigh=1e308
C11 5 4 1p Rpar=1g noiseless
C12 N008 4 100f Rser=250k noiseless
D6 N008 4 DLIMN2
A4 0 X0 0 0 0 0 X1 0 OTA g=1m linear en=75n enk=.44 Vhigh=1e308 Vlow=-1e308
C16 N006 5 6p
A5 X1 0 N005 N005 N005 N005 N006 N005 OTA g=2.3u asym isource=130n isink=-90n Vhigh=1e308 Vlow=-1e308
D12 1 3 DPROT
D13 2 3 DPROT
G1 4 N008 N006 N005 14n
D9 N006 N005 DLIM
C14 VP 5 400f
B3 VP 4 I=2n*V(VP,5)/dnlim(V(3,4),2,.1)
C7 3 1 2.5p Rser=2k Rpar=7G noiseless
C13 3 4 1000p
C15 VP N008 1p Rser=250k noiseless
S1 N006 N005 0 N004 SHUT
S2 3 VP 0 N004 SHUT
S3 N008 4 0 N004 SHUT
C1 X1 0 100p Rpar=1k noiseless
C21 N004 0 12p Rpar=20Meg noiseless
G2 0 N005 4 0 .5m
G4 0 N005 3 0 .5m
C18 N005 0 200p Rpar=1K noiseless
C4 3 2 2.5p Rser=2k Rpar=7G noiseless
C6 1 4 2.5p Rser=2k Rpar=7G noiseless
C8 2 4 2.5p Rser=2k Rpar=7G noiseless
D1 2 1 DIN
S5 1 3 N004 0 SBIAS
S6 2 3 N004 0 SBIAS
D2 4 3 DPROT
A6 4 3 0 0 0 0 N004 0 OTA g=60n iout=80n Vlow=-1e308 Vhigh=1e308
.model DIN D(Ron=1k Roff=25Meg Vfwd=1.5 epsilon=.1 Vrev=1.5 revepsilon=.1 noiseless)
.model DPROT D(Ron=1k Roff=24G Vfwd=1 epsilon=10m noiseless)
.model SBIAS SW(level=2 Ron=50Meg Roff=100G vt=0.5 vh=-.1 ilimit 2n vser=.6 )
.model SHUT SW(Ron=1 Roff=100G vt=-1 vh=-.3 noiseless)
.model NI VDMOS(Vto=300m kp=15m lambda=.01)
.model PI VDMOS(Vto=-300m Kp=30m lambda=.01 pchan is=0)
.model DLIM D(Ron=100k Roff=70Meg Vfwd=3 Vrev=1 epsilon=10m revepsilon=10m noiseless)
.model DSLIM D(Ron=100 Roff=1G Vfwd=1.5 Vrev=.1 epsilon=.1 revepsilon=.1 noiseless)
.model DLIMN1 D(Ron=200k Roff=415Meg Vfwd=1.2 Vrev=-330m epsilon=.1  noiseless)
.model DLIMN2 D(Ron=5Meg Roff=1G Vfwd=-20m epsilon=50m ilimit=19.4n noiseless)
.model DLIMP D(Ron=100k Roff=100Meg Vfwd=1 Vrev=-.3  epsilon=10m revepsilon=10m noiseless)
.ends LT6002
*
.subckt LT6003 1 2 3 4 5
A1 2 1 0 0 0 0 0 0 OTA g=0 in=11.3f ink=12.8
B1 0 X0 I=10u*dnlim(uplim(V(1),V(3)+.15,.1), V(4)-.15, .1)+1n*V(1)-1.89n
B2 X0 0 I=10u*dnlim(uplim(V(2),V(3)+16,.1), V(4)-.16, .1)+1n*V(2)
C10 X0 0 500f Rpar=100K noiseless
M1 5 N008 4 4 NI temp=27
C2 3 5 1p Rpar=10G noiseless
D5 N008 4 DLIMN1
M2 5 VP 3 3 PI temp=27
C3 3 VP 75p Rser=100k noiseless
C11 5 4 1p Rpar=10G noiseless
C12 N008 4 10f Rser=250k noiseless
A4 0 X0 0 0 0 0 N004 0 OTA g=1u linear en=324.6n enk=.23 Vhigh=1e308 Vlow=-1e308
C16 N006 5 220p
A5 N004 0 N005 N005 N005 N005 N006 N005 OTA g=4u iout=.29u Vhigh=1e308 Vlow=-1e308
G1 4 N008 N006 N005 10n
D9 N006 N005 DLIM
C14 VP 5 400f
B3 VP 4 I=2n*V(VP,5)/dnlim(V(3,4),1.7,.1)
C7 3 1 3p Rpar=4T noiseless
C13 3 4 1000p
C15 VP N008 2p Rser=250k noiseless
C1 N004 0 60p Rpar=1Meg noiseless
G2 0 N005 4 0 .5m
G4 0 N005 3 0 .5m
C18 N005 0 500p Rpar=1k noiseless
D2 N008 4 DLIMN2
C4 3 2 3p Rpar=4T noiseless
C5 1 4 3p Rpar=4T noiseless
C6 2 4 3p Rpar=4T noiseless
R3 2 1 10G noiseless
D1 2 4 DBIAS
D3 1 4 DBIAS
A2 N005 N006 4 4 4 4 VP 4 OTA g=350n ref=-.057 linear vlow=-1e308 vhigh=1e308
D4 3 VP DLIMP1
D6 3 VP DLIMP2
D7 3 4 DP
.model DP D(Ron=10k  Roff=1G Vfwd=.7 epsilon=.1 ilimit=584n noiseless)
.model DBIAS D(Ron=10Meg Roff=4T Vfwd=.5 epsilon=.1 ilimit=5p noiseless)
.model NI VDMOS(Vto=300m kp=20m)
.model PI VDMOS(Vto=-300m Kp=20m pchan)
.model DLIM D(Ron=100k Roff=70Meg Vfwd=4 Vrev=2.5 epsilon=10m revepsilon=10m noiseless)
.model DLIMN1 D(Ron=20k Roff=1g Vfwd=1.2 Vrev=-280m epsilon=.1  noiseless)
.model DLIMN2 D(Ron=600Meg Roff=2G Vfwd=200m epsilon=5m ilimit=150p noiseless)
.model DLIMP1 D(Ron=100k Roff=500Meg Vfwd=1 Vrev=-305m  epsilon=10m revepsilon=10m noiseless)
.model DLIMP2 D(Ron=100Meg Roff=10g Vfwd=100m epsilon=10m ilimit=2.5n noiseless)
.ends LT6003
*
* Pinout (Same as IC): VCCC VOCM VCCA VEEA OUTP OUTPF OUTMF OUTM VEEB VCCB EN_ VEEC INMB INMA INPB INPA
.SUBCKT LT6402-12 1 2 3 4 5 6 7 8 9 10 11 12 13 14 15 16
RA1 14 20 100
RA2 20 5 200
RA3 16 21 100
RA4 21 22 200
RB1 15 24 100
RB2 24 8 200
RB3 13 23 100
RB4 22 23 200
CA1 20 5 1p
CB1 24 8 1p
CC1 22 32 12p
XA 21 20 31 32 5 42 640212AMPA
XB 23 24 31 32 8 42 640212AMPA
XC 2 22 31 32 22 42 6402AMPC
RVCC1 3 31 0.01
RVCC2 10 31 0.01
RVCC3 1 31 0.01
RVEE1 4 32 0.01
RVEE2 9 32 0.01
RVEE3 12 32 0.01
RF1 5 6 50
RF2 8 7 50
CF1 6 32 14p
CF2 7 32 14p
CF3 6 7 14p
RSHDN 11 31 1E8
ESHDN 42 0 VALUE={25+25*TANH(5*(V(32,11)+1))}
RSHDNX 42 0 10k
DE1 13 31 DESD
DE2 14 31 DESD
DE3 15 31 DESD
DE4 16 31 DESD
DE5 32 13 DESD
DE6 32 14 DESD
DE7 32 15 DESD
DE8 32 16 DESD
.MODEL DESD D(IS=1E-14 RS=0 KF=0)
.ENDS LT6402-12
*
.SUBCKT 640212AMPA 3 2 7 4 6 42
RG1 23 0 1E4
CG1 23 0 1E-9
GG3 0 31 23 0 6.2832
RG3 31 0 0.159155
CG3 31 0 1E-8
RVNOI 51 0 240
IDUM1 51 0 0
GG1 0 23 VALUE={1.375*TANH(V(22))}
MOUT1 27 32 26 26 NOUT
MOUT2 28 32 26 26 POUT
RA 22 0 80
DVL1 36 23 DVLIM
DVL2 36 0 DVLIM
GZP2 0 32 31 0 0.1
RZP2 32 33 10
RZP3 33 0 30
LZP1 33 0 3.5n
GPWR 7 4 VALUE={10E-6+V(42)*3E-4}
GOUT 26 6 VALUE={0.02*V(42)*V(26,6)}
RDUM1 42 4 1E6
GGAIN 0 22 VALUE={0.11*V(71)*TANH(V(3,2)+V(51)+3.16E-5*V(7,4)+1E-3)}
IB1 3 0 0.5u
IB2 2 0 0.5u
GBIAS 0 32 VALUE={0.05*(V(7)+V(4))}
GLIM1 7 27 VALUE={MIN(0.035,3*(V(7,27)-1.4))}
GLIM2 28 4 VALUE={MIN(0.035,3*(V(28,4)-0.25))}
RINCM 71 0 0.25
GINCM1 0 71 VALUE={TANH(10*(V(3)-V(4)-1.1))}
GINCM2 0 71 VALUE={TANH(10*(V(2)-V(4)-1.1))}
INCM 0 71 2
RDUM 28 4 1E9
.MODEL NOUT NMOS(KP=5 VTO=-10m)
.MODEL POUT PMOS(KP=5 VTO=10m)
.MODEL DVLIM D(BV=3 IS=1E-10 KF=0 RS=0 XTI=0)
.ENDS 640212AMPA
*
.SUBCKT 6402AMPC 3 2 7 4 6 42
RG1 31 0 1000
CG1 31 0 1E-9
GG3 0 33 31 0 6.2832
RG3 33 0 0.159155
CG3 33 0 8n
GG1 0 31 VALUE={0.5*TANH(V(23))}
MOUT1 7 33 26 26 NOUT
MOUT2 4 33 26 26 POUT
RA 23 0 1.2
DVL1 32 31 DVLIM
DVL2 32 0 DVLIM
IBIAS1 3 0 5u
RIN1 3 7 6E6
RIN2 3 4 6E6
CIN1 3 7 0.5p
CIN2 3 4 0.5p
GGAIN 0 23 VALUE={V(3,2)+4E-3}
GOUT 26 6 VALUE={V(42)*0.1*V(26,6)}
RDUM1 42 4 1E6
IBIAS2 2 0 2u
.MODEL NOUT NMOS(KP=5 VTO=-10m)
.MODEL POUT PMOS(KP=5 VTO=10m)
.MODEL DVLIM D(BV=3 IS=1E-10 KF=0 RS=0 XTI=0)
.ENDS 6402AMPC
* Pinout (Same as IC): VCCC VOCM VCCA VEEA OUTP OUTPF OUTMF OUTM VEEB VCCB EN_ VEEC INMB INMA INPB INPA
.SUBCKT LT6402-20 1 2 3 4 5 6 7 8 9 10 11 12 13 14 15 16
RA1 14 20 100
RA2 20 5 500
RA3 16 21 100
RA4 21 22 500
RB1 15 24 100
RB2 24 8 500
RB3 13 23 100
RB4 22 23 500
CA1 20 5 1p
CB1 24 8 1p
CC1 22 32 12p
XA 21 20 31 32 5 42 640220AMPA
XB 23 24 31 32 8 42 640220AMPA
XC 2 22 31 32 22 42 6402AMPC
RVCC1 3 31 0.01
RVCC2 10 31 0.01
RVCC3 1 31 0.01
RVEE1 4 32 0.01
RVEE2 9 32 0.01
RVEE3 12 32 0.01
RF1 5 6 50
RF2 8 7 50
CF1 6 32 14p
CF2 7 32 14p
CF3 6 7 14p
RSHDN 11 31 1E8
ESHDN 42 0 VALUE={25+25*TANH(8*(V(32,11)+1.2))}
RSHDNX 42 0 10k
DE1 13 31 DESD
DE2 14 31 DESD
DE3 15 31 DESD
DE4 16 31 DESD
DE5 32 13 DESD
DE6 32 14 DESD
DE7 32 15 DESD
DE8 32 16 DESD
.MODEL DESD D(IS=1E-14 RS=0 KF=0)
.ENDS LT6402-20
*
.SUBCKT 640220AMPA 3 2 7 4 6 42
RG1 23 0 1E4
CG1 23 0 1E-9
GG3 0 31 23 0 6.2832
RG3 31 0 0.159155
CG3 31 0 15n
RVNOI 51 0 130
IDUM1 51 0 0
GG1 0 23 VALUE={1.375*TANH(V(22))}
MOUT1 27 34 26 26 NOUT
MOUT2 28 34 26 26 POUT
RA 22 0 80
DVL1 36 23 DVLIM
DVL2 36 0 DVLIM
GZP2 0 32 31 0 0.1
RZP2 32 33 10
RZP3 33 0 30
LZP1 33 0 3.5n
GG2 0 34 32 0 6.2832
RG2 34 35 0.159155
CG2 34 35 10p
GPWR 7 4 VALUE={10E-6+V(42)*3E-4}
GOUT 26 6 VALUE={0.02*V(42)*V(26,6)}
MVLIM1 7 7 27 27 NLIM
RDUM1 42 4 1E6
EOUT 35 0 VALUE={0.5*(V(7)+V(4))}
MVLIM2 4 4 28 28 PLIM
GGAIN 0 22 VALUE={0.11*TANH(V(3,2)+V(51)+3.16E-5*V(7,4)+1E-3)}
GILIM1 22 0 VALUE={MAX(0,30*V(26,6)-1)}
GILIM2 0 23 VALUE={MAX(0,3*(30*V(6,26)-1))}
IB1 3 0 0.5u
IB2 2 0 0.5u
.MODEL NOUT NMOS(KP=5 VTO=-10m)
.MODEL POUT PMOS(KP=5 VTO=10m)
.MODEL NLIM NMOS(KP=1 VTO=1.2)
.MODEL PLIM PMOS(KP=1 VTO=-0.15)
.MODEL NILIM NMOS(KP=10 VTO=1)
.MODEL PILIM PMOS(KP=10 VTO=-1)
.MODEL DVLIM D(BV=3 IS=1E-10 KF=0 RS=0 XTI=0)
.ENDS 640220AMPA
*
.SUBCKT 6402AMPC 3 2 7 4 6 42
RG1 31 0 1000
CG1 31 0 1E-9
GG3 0 33 31 0 6.2832
RG3 33 0 0.159155
CG3 33 0 8n
GG1 0 31 VALUE={0.5*TANH(V(23))}
MOUT1 7 33 26 26 NOUT
MOUT2 4 33 26 26 POUT
RA 23 0 1.2
DVL1 32 31 DVLIM
DVL2 32 0 DVLIM
IBIAS1 3 0 5u
RIN1 3 7 6E6
RIN2 3 4 6E6
CIN1 3 7 0.5p
CIN2 3 4 0.5p
GGAIN 0 23 VALUE={V(3,2)+4E-3}
GOUT 26 6 VALUE={V(42)*0.1*V(26,6)}
RDUM1 42 4 1E6
IBIAS2 2 0 2u
.MODEL NOUT NMOS(KP=5 VTO=-10m)
.MODEL POUT PMOS(KP=5 VTO=10m)
.MODEL DVLIM D(BV=3 IS=1E-10 KF=0 RS=0 XTI=0)
.ENDS 6402AMPC
*
* Pinout (Same as IC): VCCC VOCM VCCA VEEA OUTP OUTPF OUTMF OUTM VEEB VCCB EN_ VEEC INMB INMA INPB INPA
.SUBCKT LT6402-6 1 2 3 4 5 6 7 8 9 10 11 12 13 14 15 16
RA1 14 20 200
RA2 20 5 200
RA3 16 21 200
RA4 21 22 200
RB1 15 24 200
RB2 24 8 200
RB3 13 23 200
RB4 22 23 200
CA1 20 5 1p
CB1 24 8 1p
CC1 22 32 12p
XA 21 20 31 32 5 42 64026AMPA
XB 23 24 31 32 8 42 64026AMPA
XC 2 22 31 32 22 42 6402AMPC
RVCC1 3 31 0.01
RVCC2 10 31 0.01
RVCC3 1 31 0.01
RVEE1 4 32 0.01
RVEE2 9 32 0.01
RVEE3 12 32 0.01
RF1 5 6 50
RF2 8 7 50
CF1 6 32 14p
CF2 7 32 14p
CF3 6 7 14p
RSHDN 11 31 1E8
ESHDN 42 0 VALUE={25+25*TANH(5*(V(32,11)+1))}
RSHDNX 42 0 10k
DE1 13 31 DESD
DE2 14 31 DESD
DE3 15 31 DESD
DE4 16 31 DESD
DE5 32 13 DESD
DE6 32 14 DESD
DE7 32 15 DESD
DE8 32 16 DESD
.MODEL DESD D(IS=1E-14 RS=0 KF=0)
.ENDS LT6402-6
*
.SUBCKT 64026AMPA 3 2 7 4 6 42
RG1 23 0 8E3
CG1 23 0 1E-9
GG3 0 31 23 0 6.2832
RG3 31 0 0.159155
CG3 31 0 2E-8
RVNOI 51 0 230
IDUM1 51 0 0
GG1 0 23 VALUE={0.35*TANH(V(22))}
MOUT1 27 32 26 26 NOUT
MOUT2 28 32 26 26 POUT
RA 22 0 433
DVL1 36 23 DVLIM
DVL2 36 0 DVLIM
GZP2 0 32 31 0 0.1
RZP2 32 33 10
RZP3 33 0 30
LZP1 33 0 3.0n
GPWR 7 4 VALUE={10E-6+V(42)*3E-4}
GOUT 26 6 VALUE={0.02*V(42)*V(26,6)}
RDUM1 42 4 1E6
GGAIN 0 22 VALUE={0.11*V(71)*TANH(V(3,2)+V(51)+3.16E-5*V(7,4)+1E-3)}
IB1 3 0 0.5u
IB2 2 0 0.5u
GBIAS 0 32 VALUE={0.05*(V(7)+V(4))}
GLIM1 7 27 VALUE={MIN(0.035,3*(V(7,27)-1.4))}
GLIM2 28 4 VALUE={MIN(0.035,3*(V(28,4)-0.25))}
RINCM 71 0 0.25
GINCM1 0 71 VALUE={TANH(10*(V(3)-V(4)-1.12))}
GINCM2 0 71 VALUE={TANH(10*(V(2)-V(4)-1.12))}
INCM 0 71 2
RDUM 28 4 1E9
.MODEL NOUT NMOS(KP=5 VTO=-10m)
.MODEL POUT PMOS(KP=5 VTO=10m)
.MODEL DVLIM D(BV=3 IS=1E-10 KF=0 RS=0 XTI=0)
.ENDS 64026AMPA
*
.SUBCKT 6402AMPC 3 2 7 4 6 42
RG1 31 0 1000
CG1 31 0 1E-9
GG3 0 33 31 0 6.2832
RG3 33 0 0.159155
CG3 33 0 8n
GG1 0 31 VALUE={0.5*TANH(V(23))}
MOUT1 7 33 26 26 NOUT
MOUT2 4 33 26 26 POUT
RA 23 0 1.2
DVL1 32 31 DVLIM
DVL2 32 0 DVLIM
IBIAS1 3 0 5u
RIN1 3 7 6E6
RIN2 3 4 6E6
CIN1 3 7 0.5p
CIN2 3 4 0.5p
GGAIN 0 23 VALUE={V(3,2)+4E-3}
GOUT 26 6 VALUE={V(42)*0.1*V(26,6)}
RDUM1 42 4 1E6
IBIAS2 2 0 2u
.MODEL NOUT NMOS(KP=5 VTO=-10m)
.MODEL POUT PMOS(KP=5 VTO=10m)
.MODEL DVLIM D(BV=3 IS=1E-10 KF=0 RS=0 XTI=0)
.ENDS 6402AMPC
*
* Pinout (same as IC): REF IN- IN+ V- SHDN\ OUT V+ FB
.SUBCKT LT6552 1 2 3 4 5 6 7 8
IBIASDEF2 0 2 1.9E-5
IBIASDEF1 0 3 2E-5
RG1 22 0 7.5E4
CG1 22 0 1E-9
RCMRR 51 0 10
RVNOI 41 0 1.7E5
CIN3 2 4 7E-12
CIN2 4 3 7E-12
DVNF 42 0 DVNOI
IVNF 0 42 1
DIN1 3 7 DIN
DIN2 2 7 DIN
GG5 0 25 22 0 6.2832
RG5 25 0 0.159155
CG5 25 0 3E-8
IDUM1 41 0 0
DVNFX 43 0 DVNOIX
IVNFX 0 43 1
RINX 21 0 0.56
GG1 0 22 VALUE={0.7*TANH(V(21))}
MOUT1 77 25 66 66 NOUT
MOUT2 44 25 66 66 POUT
DVL1 23 22 DVLIM
DVL2 23 0 DVLIM
CCMRR 52 51 1.32E-13
RCMRR2 52 51 1E6
GITYP 7 4 VALUE={(11E-3+5.417E-4*V(7,4))*(0.5+0.5*TANH(6*(V(5,4)-3.7)))}
GIN 0 21 VALUE={V(3,2)+V(1,8)+V(41)+V(42,43)+V(51)+V(53)-9E-3}
GB 0 25 VALUE={3.14*(V(7)+V(4))}
GINOI1 2 3 41 0 1.27E-5
GSHDN 66 6 VALUE={(1+TANH(12*(V(5,4)-3.3)))*2*V(66,6)}
RSHDN 5 7 1.5E5
ISHDN 5 0 3E-8
GLIM1 7 77 VALUE={MIN(6.5E-2,8.33E-2*(V(7,77)-0.1))}
GLIM2 44 4 VALUE={MIN(6.5E-2,0.1*V(44,4))}
DIN3 4 3 DIN
DIN4 4 2 DIN
IBIASDEF3 0 8 1.9E-5
IBIASDEF4 0 1 2E-5
CIN1 8 4 7E-12
CIN4 4 1 7E-12
DIN5 1 7 DIN
DIN6 8 7 DIN
GINOI2 8 1 41 0 1.27E-5
DIN7 4 1 DIN
DIN8 4 8 DIN
GPSRR 0 53 7 4 2E-6
RPSRR 53 0 1E3
ECMRR 52 0 VALUE={7*(0.5*(V(3)+V(2)+V(1)+V(8))-V(7)-V(4))}
.MODEL NOUT NMOS(KF=0 KP=5 VTO=-10m RD=0)
.MODEL POUT PMOS(KF=0 KP=5 VTO=10m RD=0)
.MODEL DIN D(KF=0 RS=0 IS=1E-16)
.MODEL DVLIM D(BV=8 IS=1E-10 KF=0 RS=0)
.MODEL DVNOIX D(KF=0 RS=0)
.MODEL DVNOI D(RS=0 KF=4E-9)
.ENDS LT6552
*
* Pinout (same as IC): EN/ GND INR GNDR ING GNDG INB GNDB V+B OUTB V+G OUTG V+R OUTR V+ BCV
.SUBCKT LT6557 1 2 3 4 5 6 7 8 9 10 11 12 13 14 15 16
RVNOI1 41 0 3E3
DVNF1 42 0 DVNOI
IVNF1 0 42 1
IDUM1 41 0 0
DVNFX1 43 0 DVNOIX
IVNFX1 0 43 1
RSHDN1 1 15 40E3
ESHD1 62 0 VALUE={0.5+0.5*TANH(10*(V(15,1)-1.1))}
GCT1 0 31 10 0 1E-8
RCT1 31 0 100
CCT1 32 10 5E-15
RCT2 31 32 4500
GCT2 0 33 12 0 1E-8
RCT3 33 0 100
CCT2 34 12 5E-15
RCT4 33 34 4500
GCT3 0 35 14 0 1E-8
RCT5 35 0 100
CCT3 36 14 5E-15
RCT6 35 36 4500
GX1 0 123 VALUE={V(42,43)+V(41)+V(31)+V(33)}
GX2 0 223 VALUE={V(42,43)+V(41)+V(31)+V(35)}
GX3 0 323 VALUE={V(42,43)+V(41)+V(35)+V(33)}
XAMP1 3 13 4 14 123 62 LT6557_BASE
XAMP2 5 11 6 12 223 62 LT6557_BASE
XAMP3 7 9 8 10 323 62 LT6557_BASE
RSHDN2 1 2 1E7
RBCV 2 16 1
GBCV 2 16 VALUE={0.05}
EBCV 71 0 VALUE={450*(0.05-V(16,2))/V(16,2)-0.175}
RBV1 3 71 5000
RBV2 5 71 5000
RBV3 7 71 5000
GINOI1 5 3 VALUE={0.57*V(41)+0.041*V(42,43)}
GINOI2 0 7 VALUE={0.57*V(41)+0.041*V(42,43)}
.MODEL DVNOIX D(KF=0 RS=0)
.MODEL DVNOI D(RS=0 KF=1.3E-9)
.ENDS LT6557
*
.SUBCKT LT6557_BASE 3 7 4 6 23 62
IBIASDEF1 0 3 35E-6
RG1 24 0 600
CG1 24 0 1E-9
GG3 0 25 24 0 6.2832
RG3 25 0 0.159155
CG3 25 0 3E-9
DIN1 3 7 DIN
DIN2 4 3 DIN
GG1 0 24 VALUE={40*TANH(V(23))}
MOUT1 31 25 30 30 NOUT
MOUT2 32 25 30 30 POUT
RA 23 0 0.13
DVL1 244 24 DVLIM
DVL2 244 0 DVLIM
CIN 4 3 1.5E-12
CLD 4 6 8E-13
RDUM1 62 0 1E9
GOLIM 30 6 VALUE={V(62)*V(30,6)}
GPSRR1 0 65 7 4 1.4E-5
RPSRR1 65 0 100
RPSRR2 65 66 300
CPSRR1 66 7 2E-12
RPSRR3 65 67 300
CPSRR2 67 4 2E-12
GVMID 0 25 VALUE={3.14*(V(7)+V(4))}
GGAIN 0 23 VALUE={V(3)-0.50095*V(6)-0.5*V(4)+V(65)}
RFB 4 6 1k
GPWR1 7 4 VALUE={4E-6+V(62)*(2E-3*V(7,4)+.0124)}
GLIM1 7 31 VALUE={MIN(0.1,0.4*(V(7,31)-0.7))}
GLIM2 32 4 VALUE={MIN(0.1,0.4*(V(32,4)-0.7))}
RDUM2 32 4 1E10
RDUM3 7 31 1E10
.MODEL NOUT NMOS(KF=0 KP=5 VTO=-1E-3)
.MODEL POUT PMOS(KF=0 KP=5 VTO=1E-3)
.MODEL DIN D(KF=0 RS=0)
.MODEL DVLIM D(BV=4 IS=1E-10 KF=0 RS=0)
.ENDS LT6557_BASE
*
* Pinout (same as IC): EN/ GND INR GNDR ING GNDG INB GNDB V+B OUTB V+G OUTG V+R OUTR V+ BCV
.SUBCKT LT6558 1 2 3 4 5 6 7 8 9 10 11 12 13 14 15 16
RVNOI1 41 0 7.5E3
DVNF1 42 0 DVNOI
IVNF1 0 42 1
IDUM1 41 0 0
DVNFX1 43 0 DVNOIX
IVNFX1 0 43 1
RSHDN1 1 15 40E3
ESHD1 62 0 VALUE={0.5+0.5*TANH(10*(V(15,1)-1.1))}
GCT1 0 31 10 0 1E-8
RCT1 31 0 100
CCT1 32 10 5E-15
RCT2 31 32 4500
GCT2 0 33 12 0 1E-8
RCT3 33 0 100
CCT2 34 12 5E-15
RCT4 33 34 4500
GCT3 0 35 14 0 1E-8
RCT5 35 0 100
CCT3 36 14 5E-15
RCT6 35 36 4500
GX1 0 123 VALUE={V(42,43)+V(41)+V(31)+V(33)}
GX2 0 223 VALUE={V(42,43)+V(41)+V(31)+V(35)}
GX3 0 323 VALUE={V(42,43)+V(41)+V(35)+V(33)}
RSHDN2 1 2 1E7
RBCV 2 16 1
EBCV 71 0 VALUE={300*(0.05-V(16,2))/V(16,2)+0.275}
RBV1 3 71 5000
RBV2 5 71 5000
RBV3 7 71 5000
GINOI1 5 3 VALUE={0.57*V(41)+0.016*V(42,43)}
GINOI2 0 7 VALUE={0.57*V(41)+0.016*V(42,43)}
XAMP1 3 13 4 14 123 62 LT6558_BASE
XAMP2 5 11 6 12 223 62 LT6558_BASE
XAMP3 7 9 8 10 323 62 LT6558_BASE
IBCV 2 16 5E-2
.MODEL DVNOIX D(KF=0 RS=0)
.MODEL DVNOI D(RS=0 KF=2E-10)
.ENDS LT6558
*
.SUBCKT LT6558_BASE 3 7 4 6 23 62
IBIASDEF1 0 3 35E-6
RG1 24 0 600
CG1 24 0 1E-9
GG3 0 25 24 0 6.2832
RG3 25 0 0.159155
CG3 25 0 2.8E-9
DIN1 3 7 DIN
DIN2 4 3 DIN
GG1 0 24 VALUE={40*TANH(V(23))}
MOUT1 31 25 30 30 NOUT
MOUT2 32 25 30 30 POUT
RA 23 0 0.06
DVL1 244 24 DVLIM
DVL2 244 0 DVLIM
CIN 4 3 1.4E-12
CLD 4 6 8E-13
RDUM1 62 0 1E9
GOLIM 30 6 VALUE={V(62)*V(30,6)}
GPSRR1 0 65 7 4 2.6E-5
RPSRR1 65 0 100
RPSRR2 65 66 300
CPSRR1 66 7 5E-12
RPSRR3 65 67 300
CPSRR2 67 4 5E-12
GVMID 0 25 VALUE={3.14*(V(7)+V(4))}
GGAIN 0 23 VALUE={V(3,6)+V(65)-12E-3}
GPWR1 7 4 VALUE={4E-6+V(62)*(2E-3*V(7,4)+.0124)}
GLIM1 7 31 VALUE={MIN(0.1,0.4*(V(7,31)-0.7))}
GLIM2 32 4 VALUE={MIN(0.1,0.4*(V(32,4)-0.7))}
RDUM2 32 4 1E10
RDUM3 7 31 1E10
.MODEL NOUT NMOS(KF=0 KP=5 VTO=-1E-3)
.MODEL POUT PMOS(KF=0 KP=5 VTO=1E-3)
.MODEL DIN D(KF=0 RS=0)
.MODEL DVLIM D(BV=4 IS=1E-10 KF=0 RS=0)
.ENDS LT6558_BASE
*
*             IN+ IN- V+ V- OUT EN\
.SUBCKT LT6559 1   2  3  4   5   6
* input stage
RINP 1 99 1000000000
CINP 1 99 2e-12
IBP 301 303 DC 2.0182e-5
RBP 301 303 1E5 TC=0.0036036
VBP 303 0 DC 1.0182
GBP 1 99 POLY(2) 301 0 1 0 0 1.0E-5 1e-6
IBN 302 304 DC 2.0182e-5
RBN 302 304 1E5 TC=0.0036036
VBN 304 0 DC 1.0182
GBN 2 99 POLY(2) 302 0 2 0 0 1.0E-5 1e-5
RINN 14 99 1000000000
CINN 2 99 1e-12
GA1 99 11 1 99 0.020408
GA2 11 99 11 99 0.020408
VSENS 11 16 DC 0.0
LINN 16 14 2.5e-8
RSW1 2 14 1000000000
GSW1 2 14 POLY(2) 812 99 2 14 0 0 6.3246e-6 0 0 0 0 0 0 0 0 0 0 0 0 0
+ 0 0 0 0 0 0 0 0 0 0 0 0 0 0 0 0 0 0 0 0 0
+ 0 0 0 0 0 0 0 0 0 2.56e-6
GSW2 59 99 POLY(2) 806 99 59 99 0 0 1e-12 0 0 0 0 0 0 0 0 0 0 0 0 0 0 0 0
+ 0 0 0 0 0 0 0 0 0 0 0 0 0 0 0 0 0 0 0 0 0
+ 0 0 0 0 0 0 2.56e-6
IOFF 501 0 DC 0.0015
ROFF 501 0 1 TC=0.01
GOFF 59 99 501 0 0.020408
FA 99 59 VSENS 1.0
* noise sources
IR1 0 101 DC 1
IR2 0 102 DC 1
DR1 101 0 DRI1
DR2 102 0 DRI1
GR1 99 1 101 102 0.2898
IR3 0 103 DC 1
IR4 0 104 DC 1
DR3 103 0 DRI2
DR4 104 0 DRI2
GR2 99 2 103 104 1.2075
IR5 0 601 DC 1
IR6 0 602 DC 1
DR5 601 0 DRI3
DR6 602 0 DRI3
GR3 59 99 601 602 4.347
* common mode rejection
GCM1 99 11 POLY(2) 2 0 1 0 0 1.5621e-5 1.5621e-5
* frequency shaper
RP0 59 99 1000
CP0 59 99 3.1553e-13
GP0 99 60 59 99 0.001
RR1 660 60 0.001
* slew rate limiter
RSR 660 66 0.1
ESRP 96 0 660 66 5315.5
ESRN 97 0 660 66 5315.5
DSRP 96 95 DX
DSRN 95 97 DX
VSR 95 0 DC 0
FSR 660 99 VSR 0.01
* transimpedance stage and dominant pole
RTR 66 99 125000
C1 66 99 1.6461e-12
DC 66 53 DX
DE 54 66 DX
VC 3 53 DC 1.54
VE 54 4 DC 1.54
* output stage
GB 99 7 66 99 0.041841
ROUT 7 99 23.9
FB 7 99 VSCL 0.0018347
VSCL 90 0 DC 0
DLP 91 90 DX
DLN 90 92 DX
ESCLP 91 0 7 51 125
ESCLN 92 0 7 51 125
R01S 7 51 0.1
GSW3 51 5 POLY(2) 812 99 51 5 0 0 1e-9 0 0 0 0 0 0 0 0 0 0 0 0 0 0 0 0
+ 0 0 0 0 0 0 0 0 0 0 0 0 0 0 0 0 0 0 0 0 0
+ 0 0 0 0 0 0 2.56e-6
CGSW3 51 5 8.5e-12
R0P 5 0 593790000
* supply characteristic
EGND 99 0 POLY(2) 3 0 4 0 0 0.5 0.5
GIP 3 4 POLY(1) 99 803 3.8482e-5 0.00089
RP 3 4 1000000
GV 31 0 7 51 10
DP1 3 31 DX
DP2 33 4 DX
RGV 32 33 9.7531
EGV 31 32 POLY(1) 3 4 -0.8 1.0
* shutdown stage
RDIS1 3 6 166670
CDIS1 6 99 3e-12
GREF 99 801 POLY(2) 3 4 803 99 0.0 0.0002 0.0 0.0 -8e-6
RREF 801 99 1000
GDIS 99 803 6 801 0.001
RDIS3 803 99 100000
VDIS2 804 99 DC -0.756
VDIS3 805 99 DC -4.245
DDIS2 803 804 DX
DDIS3 805 803 DX
CDIS2 803 99 3e-12
EDIS 810 99 803 99 1
RDIS5 810 812 31.614
RDIS6 812 811 55.233
DDIS4 811 810 DX
CDIS3 812 99 1e-9
GDIS2 99 806 POLY(1) 812 99 -5.0E-3 -1.0E-3
RDIS4 806 99 1000
CDIS4 806 99 1.0053e-12
.MODEL DX D(IS=8.2592e-16 RS=0 XTI=0)
.MODEL DRI1 D(IS= 8.2592e-16 KF= 9.6222e-15 RS=0 XTI=0)
.MODEL DRI2 D(IS= 8.2592e-16 KF= 1.283e-14 RS=0 XTI=0)
.MODEL DRI3 D(IS= 8.2592e-16 KF= 9.6222e-15 RS=0 XTI=0)
.ENDS LT6559_MD
*
.subckt LTC6244 1 2 3 4 5
A1 0 N009 0 0 0 0 N005 0 OTA g=4e-4 Iout=28u Cout=.79p Vhigh=1e308 Vlow=-1e308
A2 2 1 0 0 0 0 0 0 OTA g=0 in=5.6e-16+9e-19*freq ink=70
R1 3 N005 10G noiseless
M1 3 N005 5 5 N temp=27
M2 4 N005 5 5 P temp=27
C4 2 1 2.975p
C5 1 4 .525p
C7 3 5 1p
C8 5 4 1p
C9 3 1 .525p
C10 3 2 .525p
C11 2 4 .525p
D3 5 N005 DX
R2 N005 4 10G noiseless
B1 0 N004 I=1m*dnlim(uplim(V(1),V(3)-.75,0.1), V(4)-50m,.1)+1n*V(1)
B2 N004 0 I=1m*dnlim(uplim(V(2),V(3)-.749,0.1), V(4)-51m,0.1)+1n*V(2)
G1 0 N008 N007 0 1m
L1 N008 0 65µ Rser=1.25K Rpar=5K noiseless
G2 0 N009 N008 0 1µ
C1 N009 0 150f Rpar=1Meg noiseless
C2 N007 0 30p Rser=1K Rpar=1K Cpar=2p noiseless
A3 0 N004 0 0 0 0 N007 0 OTA g=1m linear en=8n enk=200 Vhigh=1e308 Vlow=-1e308
L3 0 N004 10µ Rser=1.25K Rpar=5K Cpar=.2p noiseless
.model DX D(Ron=1k Roff=1T Vfwd=1.6 Vrev=1.6 epsilon=0.5 revepsilon=0.5 noiseless)
.model N VDMOS(Vto=-1.05 Kp=10.5m)
.model P VDMOS(Vto=1.05 Kp=10.5m pchan)
.ends LTC6244
*
.subckt LTC6244HV 1 2 3 4 5
A1 0 N009 0 0 0 0 N005 0 OTA g=4e-4 Iout=32u Cout=.79p Vhigh=1e308 Vlow=-1e308
A2 2 1 0 0 0 0 0 0 OTA g=0 in=5.6e-16+9e-19*freq ink=70
R1 3 N005 10G noiseless
M1 3 N005 5 5 N temp=27
M2 4 N005 5 5 P temp=27
C4 2 1 2.975p
C5 1 4 .525p
C7 3 5 1p
C8 5 4 1p
C9 3 1 .525p
C10 3 2 .525p
C11 2 4 .525p
D3 5 N005 DX
R2 N005 4 10G noiseless
B1 0 N004 I=1m*dnlim(uplim(V(1),V(3)-.75,0.1), V(4)-50m,.1)+1n*V(1)
B2 N004 0 I=1m*dnlim(uplim(V(2),V(3)-.749,0.1), V(4)-51m,0.1)+1n*V(2)
G1 0 N008 N007 0 1m
L1 N008 0 65µ Rser=1.25K Rpar=5K noiseless
G2 0 N009 N008 0 1µ
C1 N009 0 150f Rpar=1Meg noiseless
C2 N007 0 30p Rser=1K Rpar=1K Cpar=2p noiseless
A3 0 N004 0 0 0 0 N007 0 OTA g=1m linear en=8n enk=200 Vhigh=1e308 Vlow=-1e308
L3 0 N004 10µ Rser=1.25K Rpar=5K Cpar=.2p noiseless
.model DX D(Ron=1k Roff=1T Vfwd=1.6 Vrev=1.6 epsilon=0.5 revepsilon=0.5 noiseless)
.model N VDMOS(Vto=-1.05 Kp=10.5m)
.model P VDMOS(Vto=1.05 Kp=10.5m pchan)
.ends LTC6244HV
*
* Pinout: IN+ IN- VCC VEE OUT
.SUBCKT LTC6078 3 2 7 4 6
CCMRR 126 109 0.3p
CG1 117 0 1E-6
CG3 118 0 2.43E-5
CG5 122 0 1E-7
CIN2 4 3 9pF
CIN3 2 4 9pF
CIN4 7 3 9pF
CIN5 2 7 9pF
CPSRR1 110 119 100p
CPSRR2 111 123 100p
DIN1 3 7 DIN
DIN2 2 7 DIN
DIN3 4 3 DIN
DIN4 4 2 DIN
DOUT1 127 6 DOUTP
DOUT2 6 127 DOUTN
DVL1 112 117 DVLIM
DVL2 112 0 DVLIM
DVNF 113 0 DVNOI
DVNFX 114 0 DVNOIX
EICM 126 0 VALUE={(V(3)+V(2))/2}
EVEE 125 0 4 0 1
EVLIM1 120 0 7 0 1
EVLIM2 124 0 4 0 1
FPWR1 7 0 VVLIM1 -1
FPWR2 0 4 VVLIM2 1
GCM2 0 121 126 4 5.62E-9
GCMRRO 0 108 121 0 1
GG1 0 117 VALUE={0.01*TANH(V(23))}
GG3 0 118 117 0 6.2832
GG5 0 122 118 0 6.2832
GGAIN 0 23 108 2 500
GINX 0 108 3 0 1
GOUT 0 127 VALUE={1m*tanh(V(24))}
GPSRR 0 128 7 4 1E-9
GPSRRO 108 0 128 0 1
GVNOI1 0 108 115 0 1
GVNOI2 108 0 113 114 1
GZP1 0 24 122 0 0.1
IBIASDEF1 0 3 0.2pA
IBIASDEF2 0 2 0.2pA
IDUM1 115 0 0
IOS 3 2 0.1pA
ITYP 7 4 54uA
IVNF 0 113 1
IVNFX 0 114 1
IVOS 0 108 10E-6
LZP2 116 0 1.47E-5
MOUT1 119 127 6 6 NOUT
MOUT2 123 127 6 6 POUT
RA 23 0 0.14
RCMRR 121 0 1k
RCMRR2 109 121 3k
RG1 117 0 159.159k
RG3 118 0 0.159155
RG5 122 0 0.159155
RINX 108 0 1
ROUT1 127 125 1E4
RPSRR1 128 0 1k
RPSRR2 128 110 3k
RPSRR3 128 111 3k
RVNOI 115 0 15.56k
RZP1 24 116 10
RZP4 116 0 140
VVLIM1 119 120 0
VVLIM2 123 124 0
.MODEL NOUT NMOS(KF=0 KP=5 VTO=-1m)
.MODEL POUT PMOS(KF=0 KP=5 VTO=1m)
.MODEL DIN D(KF=0 RS=0)
.MODEL DVLIM D(BV=0.5 IS=1E-10 KF=0 RS=0)
.MODEL DVNOIX D(KF=0 RS=0)
.MODEL DVNOI D(RS=0 KF=1.15E-11)
.MODEL DOUTP D(IS=4.62E-5 KF=0 RS=0)
.MODEL DOUTN D(IS=4.62E-5 KF=0 RS=0)
.ENDS LTC6078
*
.subckt LT6108-1 1 2 3 4 5 6 7 8
M2 6 N005 N006 N006 P temp=27
C3 7 6 .1p
C4 6 4 .1p
B1 0 N003 I=10u*dnlim(uplim(V(1),V(7)+.5,.1), V(4)-.5, .1)
B2 N003 0 I=10u*dnlim(uplim(V(8),V(7)+.51,.1), V(4)-.51, .1)
C10 N003 0 10f Rpar=100K noiseless
D7 7 4 DP
A6 2 4 4 4 4 4 N013 4 SCHMITT Vt=1 Vh=10m trise=10n tfall=10n
R1 8 N006 100
D1 8 1 DINCL
D4 8 7 DESD
D5 1 7 DESD
D9 N005 N006 DZ6
D10 N005 7 DZ34
D6 4 8 DESD
D8 4 1 DESD
D11 4 6 DESD
M3 3 N019 4 4 N temp=27
C1 7 8 .2p
C2 8 4 .2p
C5 7 1 .2p
C6 1 4 .2p
A3 0 N025 0 0 0 0 N020 0 OTA g=2m asym isource=200u isink=-1u Vlow=-1e308 Vhigh=1e308 Cout=30.8p
D15 4 2 DESD
D12 7 2 DEN
A8 0 N003 N004 4 4 4 N010 4 OTA g=5u iout=5u Cout=100f Vlow=-1e308 Vhigh=1e308
A9 0 N010 0 0 0 0 N005 0 OTA g=100u linear Cout=7p Rout=10k Vlow=-1e308 Vhigh=1e308
C7 N019 4 100f Rpar=10Meg
C11 3 4 4p
A2 N013 4 4 4 4 4 N014 4 BUF td=16u trise=10n tfall=10n
A1 0 N020 N012 4 4 4 N019 4 OTA g=2u ref=-90m asym isource=330n isink=-10u Vlow=-1e308 Vhigh=1e308
D17 N019 4 DNLIM
C12 3 N019 6f
D3 4 5 DESD
D20 N026 5 DCBIAS
A13 7 4 4 4 4 4 N009 4 SCHMITT Vt=2.5 Vh=10m tau=10n IC=1
S3 N010 7 4 N004 ISHD
A4 N009 N014 4 4 4 N016 N004 4 AND trise=100n tfall=100n vlow=1e-6 vhigh=1 td=10u
D24 N010 7 XU
D25 4 N010 XD
A15 N004 4 4 4 4 4 N012 4 BUF td=7u trise=1u tfall=1u
S2 7 4 N012 4 IQ
D16 8 N008 DABI
S1 N008 4 N012 4 SWB
S4 N026 4 N012 4 SWB
C18 4 2 2p
C19 4 5 2p
C22 N008 4 2p
D18 1 N008 DABI
R3 7 N008 457k
A12 4 N018 4 5 4 N021 4 4 OR Ref=.39 Trise=10n Tfall=1n IC=0
C9 N025 0 1p Rpar=100k
G1 0 N025 5 4 10µ
I1 N025 0 3.947µ
A20 N009 N013 4 N012 4 4 N018 4 AND tfall=.1u trise=.1u
A19 N016 N021 4 4 4 4 N022 4 OR Trise=10n Tfall=10n
D2 0 N023 DLAT1
C13 N023 0 150p
A5 0 N020 0 0 0 0 N023 0 OTA g=20m asym isource=10m isink=-34u Vlow=-1e308 Vhigh=1e308 ref=-10m
A7 0 N023 0 0 0 0 N020 0 OTA g=10m asym isource=400u isink=-10u Vlow=-1e308 Vhigh=1e308
G3 N020 0 N022 4 1m
D14 0 N020 DLAT
.model DINCL D(Ron=6k Roff=100G Vfwd=.7 Vrev=.7 epsilon=.1 revepsilon=.1)
.model DESD D(Ron=500 Roff=100G Vfwd=.7 epsilon=.1)
.model DZ34 D(Ron=100 Roff=10Meg Vfwd=.7  Vrev=34.1 epsilon=.1 revepsilon=.1)
.model DZ6 D(Ron=100 Roff=100G Vfwd=.7 Vrev=6 epsilon=.1 revepsilon=.1)
.model DEN D(Ron=100k Vfwd=1 epsilon=.1 ilimit=200n)
.model DABI D(Ron=10k Roff=1g Vfwd=.3 epsilon=.1 ilimit=60n)
.model DCBIAS D(Ron=200k Roff=1T Vfwd=-.45 epsilon=.15 ilimit=12n)
.model SWB SW(Vt=.5 Vh=-.1 Ron=1k Roff=1T level=2)
.model DLAT D(Ron=1 Roff=100k Vfwd=1 Vrev=1 epsilon=90m revepsilon=90m)
.model DLAT1 D(Ron=1 Roff=10k Vfwd=1 Vrev=1 epsilon=.1 revepsilon=.1)
.model DNLIM D(Ron=100 Roff=1G Vfwd=1 Vrev=20m epsilon=.1 revepsilon=10m)
.model XU D(Ron=1K Roff=400G Vfwd=1 epsilon=.1)
.model XD D(Ron=1K Roff=200G Vfwd=1 epsilon=.1)
.model IQ SW(Vt=.5 Vh=-.3 Ron=100 Roff=1G ilimit= 420.8u level=2)
.model ISHD SW(Vt=-.5 Vh=-.3 Ron=1 Roff=400G)
.model N VDMOS(Vto=20m Kp=800m Rd=105)
.model P VDMOS(Vto=-1 Kp=100m Cgs=1f cgdmin=.1f cgdmax=.2f subthres=100u rds=1g pchan)
.model DP D(Roff=1T Ron=100 Vfwd=0.5 epsilon=.1 ilimit=2.7u)
.ends LT6108-1
*
.subckt LT6108-2 1 2 3 4 5 6 7 8
M2 6 N005 N006 N006 P temp=27
C3 7 6 .1p
C4 6 4 .1p
B1 0 N003 I=10u*dnlim(uplim(V(1),V(7)+.5,.1), V(4)-.5, .1)
B2 N003 0 I=10u*dnlim(uplim(V(8),V(7)+.51,.1), V(4)-.51, .1)
C10 N003 0 10f Rpar=100K noiseless
D7 7 4 DP
A6 2 4 4 4 4 4 N013 4 SCHMITT Vt=1 Vh=10m trise=10n tfall=10n
R1 8 N006 100
D1 8 1 DINCL
D4 8 7 DESD
D5 1 7 DESD
D9 N005 N006 DZ6
D10 N005 7 DZ34
D6 4 8 DESD
D8 4 1 DESD
D11 4 6 DESD
M3 3 N017 4 4 N temp=27
C1 7 8 .2p
C2 8 4 .2p
C5 7 1 .2p
C6 1 4 .2p
A3 0 N022 0 0 0 0 N018 0 OTA g=2m iout=200u Vlow=-1e308 Vhigh=1e308 Cout=30.8p
D15 4 2 DESD
D12 7 2 DEN
A8 0 N003 N004 4 4 4 N010 4 OTA g=5u iout=5u Cout=100f Vlow=-1e308 Vhigh=1e308
A9 0 N010 0 0 0 0 N005 0 OTA g=100u linear Cout=7p Rout=10k Vlow=-1e308 Vhigh=1e308
C7 N017 4 100f Rpar=10Meg
C11 3 4 4p
A2 N013 4 4 4 4 4 N014 4 BUF td=16u trise=10n tfall=10n
A1 0 N018 N012 4 4 4 N017 4 OTA g=2u ref=-90m asym isource=330n isink=-10u Vlow=-1e308 Vhigh=1e308
D17 N017 4 DNLIM
C12 3 N017 6f
D3 4 5 DESD
D20 N023 5 DCBIAS
A13 7 4 4 4 4 4 N009 4 SCHMITT Vt=2.5 Vh=10m tau=10n IC=1
S3 N010 7 4 N004 ISHD
A4 N009 N014 4 4 4 4 N004 4 AND trise=100n tfall=100n vlow=1e-6 vhigh=1 td=10u
D24 N010 7 XU
D25 4 N010 XD
A15 N004 4 4 4 4 4 N012 4 BUF td=7u trise=1u tfall=1u
S2 7 4 N012 4 IQ
D16 8 N008 DABI
S1 N008 4 N012 4 SWB
S4 N023 4 N012 4 SWB
C18 4 2 2p
C19 4 5 2p
C22 N008 4 2p
D18 1 N008 DABI
R3 7 N008 457k
C9 N022 0 1p Rpar=100k
G1 0 N022 5 4 10µ
I1 N022 0 3.947µ
D14 0 N018 DLAT
D2 0 N019 DLAT1
C8 N019 0 150p
A5 0 N018 0 0 0 0 N019 0 OTA g=20m asym isource=10m isink=-34u Vlow=-1e308 Vhigh=1e308 ref=-10m
A7 0 N019 0 0 0 0 N018 0 OTA g=10m asym isource=400u isink=-10u Vlow=-1e308 Vhigh=1e308
G2 N018 0 N020 4 1m
A10 4 N012 4 5 4 N020 4 4 AND trise=700n tfall=100n Ref=.389 IC=0
.model DINCL D(Ron=6k Roff=100G Vfwd=.7 Vrev=.7 epsilon=.1 revepsilon=.1)
.model DESD D(Ron=500 Roff=100G Vfwd=.7 epsilon=.1)
.model DZ34 D(Ron=100 Roff=10Meg Vfwd=.7  Vrev=34.1 epsilon=.1 revepsilon=.1)
.model DZ6 D(Ron=100 Roff=100G Vfwd=.7 Vrev=6 epsilon=.1 revepsilon=.1)
.model DEN D(Ron=100k Vfwd=1 epsilon=.1 ilimit=200n)
.model DABI D(Ron=10k Roff=1g Vfwd=.3 epsilon=.1 ilimit=60n)
.model DCBIAS D(Ron=200k Roff=1T Vfwd=-.45 epsilon=.15 ilimit=12n)