* Copyright © Linear Technology Corp. 2008, 2009, 2010. All rights reserved.
*
* LT6703_BASE IN+ IN- VCC VEE OUT REF
.SUBCKT LT6703-2 1 2 3 4
CDUM1 139 2 0.01p
CDUM2 2 131 0.01p
CIBIAS1 111 0 10p
CIBIAS2 110 0 10p
CLATCH1 141 0 10p
CPROP 136 0 2.0E-5
CRF1 128 0 2.2E-6
DHYST1 107 108 DSW
DHYST2 107 137 DSW
DILIM1 113 115 DSW
DILIM2 115 114 DSW
DOC1 122 123 DSW
DOC2 122 121 DSW
DPROP1 124 0 DIODE
DPROP2 0 124 DIODE
DPWR1 146 125 DSW
DPWR2 126 101 DSW
DVLIMOC1 119 143 DVLIM
EGND 102 0 101 0 1
EHYST1 108 0 117 0 1E5
EIBIAS1 112 0 131 3 100
EILIM1 116 0 115 0 -100
EIN 140 0 117 0 1
EINCM1 105 0 131 0 1
EINCM2 106 0 3 0 1
ELDO2 119 0 101 120 1
EOC1 0 121 136 0 10
EOM 145 0 144 0 1
EREF1 131 0 135 127 1
EVCC1 133 0 4 0 1
EVEE1 135 0 2 0 1
EVS 147 0 146 0 1
GCMRR 0 117 138 142 1.0E-5
GHYST2 0 124 137 0 1
GIBIAS1 131 0 110 0 1E-6
GIBIAS2 3 0 111 0 1E-6
GILIM1 0 113 143 118 1E4
GILIM2 114 0 118 143 1E4
GIN 0 117 131 139 1
GOUTOC 143 0 128 116 1
GPROP 0 124 141 0 1.0E+5
GPSRRN 0 117 2 142 1.0E-5
GPSRRP 0 117 4 142 1.0E-5
GPWRO1 125 0 143 118 10
GPWRO2 126 0 143 118 10
GRF1 0 128 123 0 2.2
IHYST2 0 107 3.5E+2
IIBIAS 0 109 1.0E-3
ILIM1 113 0 5.0
ILIM2 0 114 4.0E+1
IOC1 0 122 5.0E-3
IOS 131 3 1e-12
ITYP1 4 0 5.7E-6
ITYP2 0 2 5.7E-6
IVOS 0 117 5.0E-4
RDUMOC 130 118 0.001
RHYST2 107 0 1k
RHYST3 137 0 1
RIBIAS1 111 0 1
RIBIAS2 110 0 1
RIBIAS3 109 111 10k
RILIM1 115 0 1
RILIM2 113 0 1
RILIM3 114 0 1
RILIMOC 118 143 0.1
RIN 117 0 1
RINCM1 138 105 1
RINCM2 106 138 1
RLATCH0 141 140 1E-4
RLATCH1 141 0 1
RMID1 142 133 1
RMID2 135 142 1
ROC1 123 0 10
ROC2 122 0 10k
RPROP1 124 0 1
RPROP2 136 124 1.307
RPWR1 125 147 1E3
RPWR2 126 102 1E3
RRF1 128 0 0.4545
RSHD7 130 1 1E-4
RVCC 4 146 1E-4
RVEE 2 101 1E-4
RVNOI 139 3 6038.65
RVOM1 144 147 1
RVOM2 102 144 1
SIBIAS1 110 109 112 0 SWBIAS
VLDO2 0 120 1.5107
VREF1 0 127 4.0E-1
.MODEL SWHYST VSWITCH(ROFF=1E5 RON=1E-4 VON=1 VOFF=-1)
.MODEL SWLATCH VSWITCH(ROFF=1E7 RON=1E-4 VON=1.80 VOFF=2.20)
.MODEL SWLATCHX VSWITCH(ROFF=1E7 RON=1E-4 VON=2.20 VOFF=1.80)
.MODEL SWBIAS VSWITCH(ROFF=1E7 RON=1E-4 VON=2 VOFF=-2)
.MODEL SHDN VSWITCH(ROFF=1G RON=0.1 VON=1.80 VOFF=2.00)
.MODEL SHDNX VSWITCH(ROFF=1E7 RON=0.001 VON=2.00 VOFF=1.80)
.MODEL SHDNO VSWITCH(ROFF=1000000.00 RON=0.001 VON=1.80 VOFF=2.00)
.MODEL SHDNOX VSWITCH(ROFF=1000000.00 RON=0.001 VON=2.00 VOFF=1.80)
.MODEL DSW D(IS=1E-10 RS=0 XTI=0 KF=0)
.MODEL DIODE D(IS=1E-18 KF=0 XTI=0 RS=1E-8)
.MODEL DVLIM D(IS=1E-24 KF=0 RS=0 XTI=0)
.ENDS LT6703-2
*
* LT6703-3 OUT GND +IN VS
.SUBCKT LT6703-3 1 2 3 4
CDUM3 139 2 0.01p
CDUM4 2 66 0.01p
CIBIAS3 111 0 10p
CIBIAS4 110 0 10p
CLATCH2 141 0 10p
CPROP2 136 0 2.0E-5
CRF2 128 0 2.2E-6
DHYST3 107 108 DSW
DHYST4 107 137 DSW
DILIM3 113 115 DSW
DILIM4 115 114 DSW
DOC3 122 123 DSW
DOC4 122 121 DSW
DPROP3 124 0 DIODE
DPROP4 0 124 DIODE
DPWR3 146 125 DSW
DPWR4 126 101 DSW
DVLIMOC2 119 143 DVLIM
EGND2 102 0 101 0 1
EHYST2 108 0 117 0 1E5
EIBIAS2 112 0 66 131 100
EILIM2 116 0 115 0 -100
EIN2 140 0 117 0 1
EINCM3 105 0 2 0 1
EINCM4 106 0 131 0 1
ELDO2 119 0 101 120 1
EOC2 0 121 136 0 10
EOM2 145 0 144 0 1
EREF2 131 0 135 127 1
EVCC1 133 0 4 0 1
EVEE2 135 0 2 0 1
EVS2 147 0 146 0 1
GCMRR2 0 117 138 142 1.0E-5
GHYST2 0 124 137 0 1
GIBIAS3 66 0 110 0 1E-6
GIBIAS4 131 0 111 0 1E-6
GILIM3 0 113 143 118 1E4
GILIM4 114 0 118 143 1E4
GIN2 0 117 66 139 1
GOUTOC2 143 0 128 116 1
GPROP2 0 124 141 0 1.0E+5
GPSRRN2 0 117 2 142 1.0E-5
GPSRRP 0 117 4 142 1.0E-5
GPWRO3 125 0 143 118 10
GPWRO4 126 0 143 118 10
GRF2 0 128 123 0 2.2
IHYST2 0 107 3.5E+2
IIBIAS2 0 109 1.0E-3
ILIM3 113 0 5.0
ILIM4 0 114 4.0E+1
IOC2 0 122 5.0E-3
IOS2 66 131 1e-12
ITYP3 4 0 5.7E-6
ITYP4 0 2 5.7E-6
IVOS2 0 117 5.0E-4
RDUMOC2 130 118 0.001
RHYST3 107 0 1k
RHYST4 137 0 1
RIBIAS4 111 0 1
RIBIAS5 110 0 1
RIBIAS6 109 111 10k
RILIM4 115 0 1
RILIM5 113 0 1
RILIM6 114 0 1
RILIMOC2 118 143 0.1
RIN2 117 0 1
RINCM3 138 105 1
RINCM4 106 138 1
RLATCH3 141 140 1E-4
RLATCH4 141 0 1
RMID3 142 133 1
RMID4 135 142 1
ROC3 123 0 10
ROC4 122 0 10k
RPROP3 124 0 1
RPROP4 136 124 1.307
RPWR3 125 147 1E3
RPWR4 126 102 1E3
RRF2 128 0 0.4545
RSHD2 130 1 1E-4
RVCC2 2 146 1E-4
RVEE2 2 101 1E-4
RVNOI2 139 131 6038.65
RVOM3 144 147 1
RVOM4 102 144 1
SIBIAS2 110 109 0 112 SWBIAS
VLDO2 0 120 1.5107
VREF2 2 127 4.0E-1
VHYST 64 0 6.5m
RHYST1 HYST 0 1
SW1 64 HYST 63 0 SWHYST
EHYST 65 0 3 0 1
E1 63 0 1 2 1
E2 66 65 HYST 0 1
.MODEL SWHYST SW(ROFF=1e6 RON=1E-6 VT=.5)
.MODEL SWLATCH SW(ROFF=1E7 RON=1E-4 VT=2 VH=-0.2)
.MODEL SWBIAS SW(ROFF=1E7 RON=1E-4 VT=0 VH=-2)
.MODEL SHDN SW(ROFF=1G RON=0.1 VT=1.90 VH=-0.1)
.MODEL SHDNX SW(ROFF=1E7 RON=0.001 VT=1.90 VH=0.1)
.MODEL SHDNO SW(ROFF=1000000.00 RON=0.001 VT=1.90 VH=-0.1)
.MODEL SHDNOX SW(ROFF=1000000.00 RON=0.001 VT=1.90 VH=0.1)
.MODEL DSW D(IS=1E-10 RS=0 XTI=0 KF=0)
.MODEL DIODE D(IS=1E-18 KF=0 XTI=0 RS=1E-8)
.MODEL DVLIM D(IS=1E-24 KF=0 RS=0 XTI=0)
.ends LT6703-3
*
.SUBCKT LTC6084 3 2 7 4 6
IBIASDEF2 0 2 0.3pA
IBIASDEF1 0 3 0.2pA
RG1 24 0 55k
CG1 24 0 240E-5
GCM2 0 51 30 4 10E-9
RCMRR 51 0 1k
GPSRR 0 53 7 4 10E-9
RPSRR1 53 0 1k
GG3 0 25 24 0 6.2832
RG3 25 0 0.159155
CG3 25 0 0.1E-6
RVNOI 41 0 15.56k
CIN3 2 4 7pF
CIN2 4 3 7pF
DVNF 42 0 DVNOI
IVNF 0 42 10
DIN1 3 7 DIN
DIN2 2 7 DIN
GZP1 0 27 26 0 0.058
RZP1 27 28 220
RZP4 28 0 370
LZP2 28 0 4E-6
GG5 0 26 25 0 5.44
RG5 26 0 0.1159155
CG5 26 0 0.1E-8
DIN3 4 3 DIN
DIN4 4 2 DIN
IDUM1 41 0 0
DVNFX 43 0 DVNOIX
IVNFX 0 43 1
GG1 0 24 VALUE={700*TANH(V(23))}
MOUT1 61 27 6 6 NOUT
MOUT2 62 27 6 6 POUT
CIN4 7 3 7pF
CIN5 2 7 7pF
RA 23 0 1.5
DVL1 NVL1 24 DVLIM
DVL2 NVL1 0 DVLIM
EICM 30 0 VALUE={(V(3)+V(2))/2}
CCMRR 30 52 0.1p
RCMRR2 52 51 3k
RPSRR2 53 54 3k
CPSRR1 54 7 100p
RPSRR3 53 55 3k
CPSRR2 55 4 1000p
ITYP 7 4 110µA
GGAIN 0 23 VALUE={20*V(3,2)+V(42,43)+V(51)+V(53)+10E-6}
GB 0 27 VALUE={0.02*V(7,4)}
GLIM1 7 61 VALUE={MIN(0.02,V(7,61))}
GLIM2 62 4 VALUE={MIN(0.02,V(62,4))}
.MODEL NOUT NMOS(KF=0 KP=50 VTO=-1m)
.MODEL POUT PMOS(KF=0 KP=50 VTO=1m)
.MODEL DIN D(KF=0 RS=0)
.MODEL DVLIM D(BV=2 IS=1E-10 KF=0 RS=0)
.MODEL DVNOIX D(KF=5.15E-13 RS=0)
.MODEL DVNOI D(RS=0 KF=8.15E-13)
.ENDS LTC6084
*
.subckt LTC6102 1 2 3 4 5 6
CG1 117 0 2.9E-7
CG3 118 0 5E-7
CIN1 3 2 4p
CIN2 2 4 4p
CIN3 3 5 4p
CIN4 5 4 4p
CPSRR1 114 119 1.2p
DIN1 5 112 DIN
DIN2 112 113 DIN
DIN3 113 22 DIN
DIN4 21 22 DIN
DIN5 22 21 DIN
DVL1 116 117 DVLIM1
DVL2 116 0 DVLIM2
DZ1 3 5 DZNR
DZ2 2 1 DZNR
EVLIM1 119 0 5 0 1
EVLIM2 120 0 VALUE={V(5)-4}
GG1 0 117 VALUE={4*TANH(V(23))}
GG3 0 118 117 0 6.2832
GGAIN 0 23 111 22 1.5625m
GINX1 0 111 21 0 1
GOUT 0 121 118 0 10m
GPSRR 0 122 5 2 5.62e-12
GPSRRO 111 0 122 0 1
GPWR 5 2 115 0 1E-6
IBIAS1 21 0 1.5n
IBIAS2 22 0 1.5n
IOS 21 22 2n
ISUPTC 0 115 1
IVOS 0 111 20u
MCUR 1 6a 6 6 PCUR
MOUT1 119 121 6a 6a NOUT
MOUT2 120 121 6a 6a POUT
RA 23 0 800
RG1 117 0 160K
RG3 118 0 0.159155
RIN1 21 4 5k
RIN2 22 3 5k
RINX1 111 0 1
ROUT1 119 121 200
ROUT2 121 120 200
RPSRR1 122 0 1k
RPSRR2 122 114 1meg
RPWR 2 5 440k
RSUPTC 115 0 210 TC1=5m
.MODEL NOUT NMOS(KF=0 KP=5 VTO=-10M)
.MODEL POUT PMOS(KF=0 KP=5 VTO=10M)
.MODEL PCUR PMOS(KF=0 KP=5E-4)
.MODEL DIN D(KF=0 RS=0)
.MODEL DVLIM1 D(BV=1.2 IS=1E-10 KF=0 RS=0)
.MODEL DVLIM2 D(BV=5 IS=1E-10 KF=0 RS=0)
.MODEL DZNR D(BV=10 TBV1=0.75m IS=1E-12 KF=0 RS=0 XTI=0)
.ENDS LTC6102
*
* Pinout: OUTA, OUTB, V-, +INB/V+, -INB, -INA, +INA/V+
.subckt LTC6103 1 2 3 4 5 6 7
CG1 117A 0 2.9E-7
CG3 118A 0 5E-7
CIN1 6 3 4p
CIN2 3 7 4p
CIN3 6 7 4p
*CIN4 7 7 4p ??
CPSRR1 114A 119A 1.2p
DIN1 7 112A DIN
DIN2 112A 113A DIN
DIN3 113A 22A DIN
DIN4 21A 22A DIN
DIN5 22A 21A DIN
DVL1 116A 117A DVLIM1
DVL2 116A 0 DVLIM2
DZ1 6 7 DZNR
DZ2 3 1 DZNR
EVLIM1 119A 0 7 0 1
EVLIM2 120A 0 VALUE={V(7)-4}
GG1 0 117A VALUE={4*TANH(V(23A))}
GG3 0 118A 117A 0 6.2832
GGAIN 0 23A 111A 22A 1.5625m
GINX1 0 111A 21A 0 1
GOUT 0 121A 118A 0 10m
GPSRR 0 122A 7 3 3.162E-11
GPSRRO 111A 0 122A 0 1
GPWR 7 3 115A 0 1E-6
IBIAS1 21A 0 100n
IBIAS2 22A 0 100n
IOS 21A 22A 2n
ISUPTC 0 115A 1
IVOS 0 111A 150u
MCUR 1 6A 6 6 PCUR
MOUT1 119A 121A 6A 6A NOUT
MOUT2 120A 121A 6A 6A POUT
RA 23A 0 800
RG1 117A 0 160K
RG3 118A 0 0.159155
RIN1 21A 7 5k
RIN2 22A 6 5k
RINX1 111A 0 1
ROUT1 119A 121A 200
ROUT2 121A 120A 200
RPSRR1 122A 0 1k
RPSRR2 122A 114 1meg
RPWR 3 7 440k
RSUPTC 115A 0 210A TC1=5m
CG1B 117B 0 2.9E-7
CG3B 118B 0 5E-7
CIN1B 5 3 4p
CIN2B 3 4 4p
CIN3B 5 4 4p
*CIN4 4 4 4p
CPSRR1B 114B 119B 1.2p
DIN1B 4 112B DIN
DIN2B 112B 113B DIN
DIN3B 113B 22B DIN
DIN4B 21B 22B DIN
DIN5B 22B 21B DIN
DVL1B 116B 117B DVLIM1
DVL2B 116B 0 DVLIM2
DZ1B 5 4 DZNR
DZ2B 3 2 DZNR
EVLIM1B 119B 0 4 0 1
EVLIM2B 120B 0 VALUE={V(7)-4}
GG1B 0 117B VALUE={4*TANH(V(23B))}
GG3B 0 118B 117B 0 6.2832
GGAINB 0 23B 111B 22B 1.5625m
GINX1B 0 111B 21B 0 1
GOUTB 0 121B 118B 0 10m
GPSRRB 0 122B 4 3 3.162E-11
GPSRROB 111B 0 122B 0 1
GPWRB 4 3 115B 0 1E-6
IBIAS1B 21B 0 100n
IBIAS2B 22B 0 100n
IOSB 21B 22B 2n
ISUPTCB 0 115B 1
IVOSB 0 111B 150u
MCURB 2 6B 5 5 PCUR
MOUT1B 119B 121B 6B 6B NOUT
MOUT2B 120B 121B 6B 6B POUT
RAB 23B 0 800
RG1B 117B 0 160K
RG3B 118B 0 0.159155
RIN1B 21B 4 5k
RIN2B 22B 5 5k
RINX1B 111B 0 1
ROUT1B 119B 121B 200
ROUT2B 121B 120B 200
RPSRR1B 122B 0 1k
RPSRR2B 122B 114B 1meg
RPWRB 3 7 440k
RSUPTCB 115B 0 210B TC1=5m
.MODEL NOUT NMOS(KF=0 KP=5 VTO=-10M)
.MODEL POUT PMOS(KF=0 KP=5 VTO=10M)
.MODEL PCUR PMOS(KF=0 KP=5E-4)
.MODEL DIN D(KF=0 RS=0)
.MODEL DVLIM1 D(BV=1.2 IS=1E-10 KF=0 RS=0)
.MODEL DVLIM2 D(BV=5 IS=1E-10 KF=0 RS=0)
.MODEL DZNR D(BV=10 TBV1=0.75m IS=1E-12 KF=0 RS=0 XTI=0)
.ENDS LTC6103
*
* Pinout (same as IC): IN- VOCM V+ OUT+ OUT- V- EN/ IN+ -OUTF +OUTF
.SUBCKT LTC6400-20 1 2 3 4 5 6 7 8 9 10
CG1P 26 0 0.4E-9
CG3P 28 0 20E-12
CG5M 25 0 10E-12
CG5P 24 0 10E-12
*CIN2 3 8a 1p
*CIN3 1a 3 1p
*CIN4 6 8a 1p
*CIN5 1a 6 1p
COCM1 61 0 70p
COCM3 6 2 4E-12
CPSRR1 53 3 4e-14
CPSRR2 54 6 4e-14
DIN1 8a 3 DIN
DIN2 1a 3 DIN
DIN3 6 8a DIN
DIN4 6 1a DIN
DIN5 51 8a DIN
DIN6 1a 51 DIN
DIN7 8a 62 DIN
DIN8 62 1a DIN
DVL1P 27 26 DVLIM
DVL2P 27 0 DVLIM
DVNF 42 0 DVNOI
DVNFX 43 0 DVNOIX
ESHD1 88 0 VALUE={0.5+0.5*TANH(-5*(1.2-V(3,7)))}
GG1P 0 26 VALUE={6.6*TANH(V(23))}
GG3P 0 28 26 0 6.2832
GG5M 0 25 0 28 6.4832
GG5P 0 24 28 0 6.4832
GGAINP 0 23 22 1a 14.1111
GINOI1 1a 0 0 44 1m
GINOI2 8a 0 0 45 1m
GINX 0 22 VALUE={V(8a)+3.1E-5*(0.5*(V(8a)+V(1a))-V(6))-V(52)+V(42,43)+V(41)-1.5m}
GOCM1 0 61 VALUE={V(88)*((V(2)-(V(4a)+V(5a))/2)+7.5m)+10*V(41)}
GOCM2 0 24 61 0 6.283
GOCM3 0 25 61 0 6.283
GOUT1 31 4a VALUE={MIN(0.085,V(88)*0.143*V(31,4a))}
GOUT2 32 5a VALUE={MIN(0.085,V(88)*0.143*V(32,5a))}
GPSRR 0 52 3 6 40E-7
GPWR 3 6 VALUE={V(88)*(V(3,6)/43.5+15E-3)+0.9E-3}
IBIASDEF1 0 8a 1u
IBIASDEF2 0 1a 1u
IDUM1 41 0 0
IDUM2 45 44 0
IVNF 0 42 1
IVNFX 0 43 1
MOUT1 3 24 31 31 NOUT
MOUT1M 3 25 32 32 NOUT
MOUT2 6 24 31 31 POUT
MOUT2M 6 25 32 32 POUT
RAP 23 0 1
RG1P 26 0 400k
RG3P 28 0 0.159155
RG5M 25 0 0.159155
RG5P 24 0 0.159155
RINOI1 44 0 380
RINOI2 45 0 380
RINX 22 0 1
ROCM1 61 0 100k
RPSRR1 52 0 10
RPSRR2 52 53 30
RPSRR3 52 54 30
RSHDN2 7 3 100k
RVNOI 41 0 100
RVOCM3 3 2 80k
RVOCM4 2 6 80k
* External to the amp
RG1 8a 8 100
RG2 1a 1 100
RF1 8a 5a 1000
RF2 1a 4a 1000
ROUTP 4a 4 12.5
ROUTN 5a 5 12.5
RFILTP 4a 10 50
RFILTN 5a 9 50
CFILT 9 10 1.7pF
.MODEL NOUT NMOS(KP=1 VTO=1M)
.MODEL POUT PMOS(KP=1 VTO=-1M)
.MODEL DIN D(IS=1E-12 KF=0 RS=0)
.MODEL DVLIM D(BV=5 IS=1E-18 KF=0 RS=0 XTI=0)
.MODEL DVNOIX D(KF=0 RS=0)
.MODEL DVNOI D(RS=0 KF= 3E-12)
.ENDS LTC6400-20
*
* Pinout (same as IC): IN- VOCM V+ OUT+ OUT- V- EN/ IN+ -OUTF +OUTF
.SUBCKT LTC6400-26 1 2 3 4 5 6 7 8 9 10
CG1P 26 0 0.4E-9
CG3P 28 0 20E-12
CG5M 25 0 10E-12
CG5P 24 0 10E-12
*CIN2 3 8a 1p
*CIN3 1a 3 1p
*CIN4 6 8a 1p
*CIN5 1a 6 1p
COCM1 61 0 70p
COCM3 6 2 4E-12
CPSRR1 53 3 4e-14
CPSRR2 54 6 4e-14
DIN1 8a 3 DIN
DIN2 1a 3 DIN
DIN3 6 8a DIN
DIN4 6 1a DIN
DIN5 51 8a DIN
DIN6 1a 51 DIN
DIN7 8a 62 DIN
DIN8 62 1a DIN
DVL1P 27 26 DVLIM
DVL2P 27 0 DVLIM
DVNF 42 0 DVNOI
DVNFX 43 0 DVNOIX
ESHD1 88 0 VALUE={0.5+0.5*TANH(-5*(1.2-V(3,7)))}
GG1P 0 26 VALUE={6.6*TANH(V(23))}
GG3P 0 28 26 0 6.2832
GG5M 0 25 0 28 6.4832
GG5P 0 24 28 0 6.4832
GGAINP 0 23 22 1a 14.1111
GINOI1 1a 0 0 44 1m
GINOI2 8a 0 0 45 1m
GINX 0 22 VALUE={V(8a)+3.1E-5*(0.5*(V(8a)+V(1a))-V(6))-V(52)+V(42,43)+V(41)-1.5m}
GOCM1 0 61 VALUE={V(88)*((V(2)-(V(4a)+V(5a))/2)+7.5m)+10*V(41)}
GOCM2 0 24 61 0 6.283
GOCM3 0 25 61 0 6.283
GOUT1 31 4a VALUE={MIN(0.085,V(88)*0.143*V(31,4a))}
GOUT2 32 5a VALUE={MIN(0.085,V(88)*0.143*V(32,5a))}
GPSRR 0 52 3 6 40E-7
GPWR 3 6 VALUE={V(88)*(V(3,6)/43.5+15E-3)+0.9E-3}
IBIASDEF1 0 8a 1u
IBIASDEF2 0 1a 1u
IDUM1 41 0 0
IDUM2 45 44 0
IVNF 0 42 1
IVNFX 0 43 1
MOUT1 3 24 31 31 NOUT
MOUT1M 3 25 32 32 NOUT
MOUT2 6 24 31 31 POUT
MOUT2M 6 25 32 32 POUT
RAP 23 0 1
RG1P 26 0 400k
RG3P 28 0 0.159155
RG5M 25 0 0.159155
RG5P 24 0 0.159155
RINOI1 44 0 380
RINOI2 45 0 380
RINX 22 0 1
ROCM1 61 0 100k
RPSRR1 52 0 10
RPSRR2 52 53 30
RPSRR3 52 54 30
RSHDN2 7 3 100k
RVNOI 41 0 100
RVOCM3 3 2 80k
RVOCM4 2 6 80k
* External to the amp
RG1 8a 8 25
RG2 1a 1 25
RF1 8a 5a 500
RF2 1a 4a 500
ROUTP 4a 4 12.5
ROUTN 5a 5 12.5
RFILTP 4a 10 50
RFILTN 5a 9 50
CFILT 9 10 2.7pF
.MODEL NOUT NMOS(KP=1 VTO=1M)
.MODEL POUT PMOS(KP=1 VTO=-1M)
.MODEL DIN D(IS=1E-12 KF=0 RS=0)
.MODEL DVLIM D(BV=5 IS=1E-18 KF=0 RS=0 XTI=0)
.MODEL DVNOIX D(KF=0 RS=0)
.MODEL DVNOI D(RS=0 KF= 3E-12)
.ENDS LTC6400-26
*
* Pinout (same as IC): IN- VOCM V+ OUT+ OUT- V- EN/ IN+ -OUTF +OUTF
.SUBCKT LTC6401-20 1 2 3 4 5 6 7 8 9 10
CG1P 26 0 0.7E-9
CG3P 28 0 20E-12
CG5M 25 0 10E-12
CG5P 24 0 10E-12
*CIN2 3 8a 1p
*CIN3 1a 3 1p
*CIN4 6 8a 1p
*CIN5 1a 6 1p
COCM1 61 0 70p
COCM3 6 2 4E-12
CPSRR1 53 3 4e-14
CPSRR2 54 6 4e-14
DIN1 8a 3 DIN
DIN2 1a 3 DIN
DIN3 6 8a DIN
DIN4 6 1a DIN
DIN5 51 8a DIN
DIN6 1a 51 DIN
DIN7 8a 62 DIN
DIN8 62 1a DIN
DVL1P 27 26 DVLIM
DVL2P 27 0 DVLIM
DVNF 42 0 DVNOI
DVNFX 43 0 DVNOIX
ESHD1 88 0 VALUE={0.5+0.5*TANH(-5*(1.2-V(3,7)))}
GG1P 0 26 VALUE={6.6*TANH(V(23))}
GG3P 0 28 26 0 6.2832
GG5M 0 25 0 28 6.4832
GG5P 0 24 28 0 6.4832
GGAINP 0 23 22 1a 14.1111
GINOI1 1a 0 0 44 1m
GINOI2 8a 0 0 45 1m
GINX 0 22 VALUE={V(8a)+3.1E-5*(0.5*(V(8a)+V(1a))-V(6))-V(52)+V(42,43)+V(41)-1.5m}
GOCM1 0 61 VALUE={V(88)*((V(2)-(V(4a)+V(5a))/2)+7.5m)+10*V(41)}
GOCM2 0 24 61 0 6.283
GOCM3 0 25 61 0 6.283
GOUT1 31 4a VALUE={MIN(0.085,V(88)*0.143*V(31,4a))}
GOUT2 32 5a VALUE={MIN(0.085,V(88)*0.143*V(32,5a))}
GPSRR 0 52 3 6 40E-7
GPWR 3 6 VALUE={V(88)*(V(3,6)/88.5+15E-3)+0.9E-3}
IBIASDEF1 0 8a 1u
IBIASDEF2 0 1a 1u
IDUM1 41 0 0
IDUM2 45 44 0
IVNF 0 42 1
IVNFX 0 43 1
MOUT1 3 24 31 31 NOUT
MOUT1M 3 25 32 32 NOUT
MOUT2 6 24 31 31 POUT
MOUT2M 6 25 32 32 POUT
RAP 23 0 1
RG1P 26 0 400k
RG3P 28 0 0.159155
RG5M 25 0 0.159155
RG5P 24 0 0.159155
RINOI1 44 0 380
RINOI2 45 0 380
RINX 22 0 1
ROCM1 61 0 100k
RPSRR1 52 0 10
RPSRR2 52 53 30
RPSRR3 52 54 30
RSHDN2 7 3 100k
RVNOI 41 0 100
RVOCM3 3 2 80k
RVOCM4 2 6 80k
* External to the amp
RG1 8a 8 100
RG2 1a 1 100
RF1 8a 5a 1000
RF2 1a 4a 1000
ROUTP 4a 4 12.5
ROUTN 5a 5 12.5
RFILTP 4a 10 50
RFILTN 5a 9 50
CFILT 9 10 1.7pF
.MODEL NOUT NMOS(KP=1 VTO=1M)
.MODEL POUT PMOS(KP=1 VTO=-1M)
.MODEL DIN D(IS=1E-12 KF=0 RS=0)
.MODEL DVLIM D(BV=5 IS=1E-18 KF=0 RS=0 XTI=0)
.MODEL DVNOIX D(KF=0 RS=0)
.MODEL DVNOI D(RS=0 KF= 3E-12)
.ENDS LTC6401-20
*
* Pinout (same as IC): IN- VOCM V+ OUT+ OUT- V- EN/ IN+ -OUTF +OUTF
.SUBCKT LTC6401-26 1 2 3 4 5 6 7 8 9 10
CG1P 26 0 0.7E-9
CG3P 28 0 20E-12
CG5M 25 0 10E-12
CG5P 24 0 10E-12
*CIN2 3 8a 1p
*CIN3 1a 3 1p
*CIN4 6 8a 1p
*CIN5 1a 6 1p
COCM1 61 0 70p
COCM3 6 2 4E-12
CPSRR1 53 3 4e-14
CPSRR2 54 6 4e-14
DIN1 8a 3 DIN
DIN2 1a 3 DIN
DIN3 6 8a DIN
DIN4 6 1a DIN
DIN5 51 8a DIN
DIN6 1a 51 DIN
DIN7 8a 62 DIN
DIN8 62 1a DIN
DVL1P 27 26 DVLIM
DVL2P 27 0 DVLIM
DVNF 42 0 DVNOI
DVNFX 43 0 DVNOIX
ESHD1 88 0 VALUE={0.5+0.5*TANH(-5*(1.2-V(3,7)))}
GG1P 0 26 VALUE={6.6*TANH(V(23))}
GG3P 0 28 26 0 6.2832
GG5M 0 25 0 28 6.4832
GG5P 0 24 28 0 6.4832
GGAINP 0 23 22 1a 14.1111
GINOI1 1a 0 0 44 1m
GINOI2 8a 0 0 45 1m
GINX 0 22 VALUE={V(8a)+3.1E-5*(0.5*(V(8a)+V(1a))-V(6))-V(52)+V(42,43)+V(41)-1.5m}
GOCM1 0 61 VALUE={V(88)*((V(2)-(V(4a)+V(5a))/2)+7.5m)+10*V(41)}
GOCM2 0 24 61 0 6.283
GOCM3 0 25 61 0 6.283
GOUT1 31 4a VALUE={MIN(0.085,V(88)*0.143*V(31,4a))}
GOUT2 32 5a VALUE={MIN(0.085,V(88)*0.143*V(32,5a))}
GPSRR 0 52 3 6 40E-7
GPWR 3 6 VALUE={V(88)*(V(3,6)/88.5+15E-3)+0.9E-3}
IBIASDEF1 0 8a 1u
IBIASDEF2 0 1a 1u
IDUM1 41 0 0
IDUM2 45 44 0
IVNF 0 42 1
IVNFX 0 43 1
MOUT1 3 24 31 31 NOUT
MOUT1M 3 25 32 32 NOUT
MOUT2 6 24 31 31 POUT
MOUT2M 6 25 32 32 POUT
RAP 23 0 1
RG1P 26 0 400k
RG3P 28 0 0.159155
RG5M 25 0 0.159155
RG5P 24 0 0.159155
RINOI1 44 0 380
RINOI2 45 0 380
RINX 22 0 1
ROCM1 61 0 100k
RPSRR1 52 0 10
RPSRR2 52 53 30
RPSRR3 52 54 30
RSHDN2 7 3 100k
RVNOI 41 0 100
RVOCM3 3 2 80k
RVOCM4 2 6 80k
* External to the amp
RG1 8a 8 25
RG2 1a 1 25
RF1 8a 5a 500
RF2 1a 4a 500
ROUTP 4a 4 12.5
ROUTN 5a 5 12.5
RFILTP 4a 10 50
RFILTN 5a 9 50
CFILT 9 10 1.7pF
.MODEL NOUT NMOS(KP=1 VTO=1M)
.MODEL POUT PMOS(KP=1 VTO=-1M)
.MODEL DIN D(IS=1E-12 KF=0 RS=0)
.MODEL DVLIM D(BV=5 IS=1E-18 KF=0 RS=0 XTI=0)
.MODEL DVNOIX D(KF=0 RS=0)
.MODEL DVNOI D(RS=0 KF= 3E-12)
.ENDS LTC6401-26
*
* Pinout (same as IC):IN- VOCM V+ OUT+ OUT- V- EN/ IN+ -OUTF +OUTF
.SUBCKT LTC6401-8 1 2 3 4 5 6 7 8 9 10
CG1P 26 0 0.7E-9
CG3P 28 0 20E-12
CG5M 25 0 10E-12
CG5P 24 0 10E-12
*CIN2 3 8a 1p
*CIN3 1a 3 1p
*CIN4 6 8a 1p
*CIN5 1a 6 1p
COCM1 61 0 70p
COCM3 6 2 4E-12
CPSRR1 53 3 4e-14
CPSRR2 54 6 4e-14
DIN1 8a 3 DIN
DIN2 1a 3 DIN
DIN3 6 8a DIN
DIN4 6 1a DIN
DIN5 51 8a DIN
DIN6 1a 51 DIN
DIN7 8a 62 DIN
DIN8 62 1a DIN
DVL1P 27 26 DVLIM
DVL2P 27 0 DVLIM
DVNF 42 0 DVNOI
DVNFX 43 0 DVNOIX
ESHD1 88 0 VALUE={0.5+0.5*TANH(-5*(1.2-V(3,7)))}
GG1P 0 26 VALUE={6.6*TANH(V(23))}
GG3P 0 28 26 0 6.2832
GG5M 0 25 0 28 6.4832
GG5P 0 24 28 0 6.4832
GGAINP 0 23 22 1a 14.1111
GINOI1 1a 0 0 44 1m
GINOI2 8a 0 0 45 1m
GINX 0 22 VALUE={V(8a)+3.1E-5*(0.5*(V(8a)+V(1a))-V(6))-V(52)+V(42,43)+V(41)-1.5m}
GOCM1 0 61 VALUE={V(88)*((V(2)-(V(4a)+V(5a))/2)+7.5m)+10*V(41)}
GOCM2 0 24 61 0 6.283
GOCM3 0 25 61 0 6.283
GOUT1 31 4a VALUE={MIN(0.085,V(88)*0.143*V(31,4a))}
GOUT2 32 5a VALUE={MIN(0.085,V(88)*0.143*V(32,5a))}
GPSRR 0 52 3 6 40E-7
GPWR 3 6 VALUE={V(88)*(V(3,6)/88.5+15E-3)+0.9E-3}
IBIASDEF1 0 8a 1u
IBIASDEF2 0 1a 1u
IDUM1 41 0 0
IDUM2 45 44 0
IVNF 0 42 1
IVNFX 0 43 1
MOUT1 3 24 31 31 NOUT
MOUT1M 3 25 32 32 NOUT
MOUT2 6 24 31 31 POUT
MOUT2M 6 25 32 32 POUT
RAP 23 0 1
RG1P 26 0 400k
RG3P 28 0 0.159155
RG5M 25 0 0.159155
RG5P 24 0 0.159155
RINOI1 44 0 380
RINOI2 45 0 380
RINX 22 0 1
ROCM1 61 0 100k
RPSRR1 52 0 10
RPSRR2 52 53 30
RPSRR3 52 54 30
RSHDN2 7 3 100k
RVNOI 41 0 100
RVOCM3 3 2 80k
RVOCM4 2 6 80k
* External to the amp
RG1 8a 8 200
RG2 1a 1 200
RF1 8a 5a 500
RF2 1a 4a 500
ROUTP 4a 4 12.5
ROUTN 5a 5 12.5
RFILTP 4a 10 50
RFILTN 5a 9 50
CFILT 9 10 1.7pF
.MODEL NOUT NMOS(KP=1 VTO=1M)
.MODEL POUT PMOS(KP=1 VTO=-1M)
.MODEL DIN D(IS=1E-12 KF=0 RS=0)
.MODEL DVLIM D(BV=5 IS=1E-18 KF=0 RS=0 XTI=0)
.MODEL DVNOIX D(KF=0 RS=0)
.MODEL DVNOI D(RS=0 KF= 3E-12)
.ENDS LTC6401-8
*
.SUBCKT LTC6081 3 2 7 4 6
IBIASDEF2 0 2 0.3pA
IBIASDEF1 0 3 0.2pA
RG1 24 0 55k
CG1 24 0 240E-5
GCM2 0 51 30 4 10E-9
RCMRR 51 0 1k
GPSRR 0 53 7 4 10E-9
RPSRR1 53 0 1k
GG3 0 25 24 0 6.2832
RG3 25 0 0.159155
CG3 25 0 13.1E-6
RVNOI 41 0 15.56k
CIN3 2 4 7pF
CIN2 4 3 7pF
DVNF 42 0 DVNOI
IVNF 0 42 10
DIN1 3 7 DIN
DIN2 2 7 DIN
GZP1 0 27 26 0 0.058
RZP1 27 28 220
RZP4 28 0 370
LZP2 28 0 4E-6
GG5 0 26 25 0 5.44
RG5 26 0 0.1159155
CG5 26 0 0.1E-8
DIN3 4 3 DIN
DIN4 4 2 DIN
IDUM1 41 0 0
DVNFX 43 0 DVNOIX
IVNFX 0 43 1
GG1 0 24 VALUE={2000*TANH(V(23))}
MOUT1 61 27 6 6 NOUT
MOUT2 62 27 6 6 POUT
CIN4 7 3 7pF
CIN5 2 7 7pF
RA 23 0 1.5
DVL1 NVL1 24 DVLIM
DVL2 NVL1 0 DVLIM
EICM 30 0 VALUE={(V(3)+V(2))/2}
CCMRR 30 52 0.1p
RCMRR2 52 51 3k
RPSRR2 53 54 3k
CPSRR1 54 7 100p
RPSRR3 53 55 3k
CPSRR2 55 4 1000p
ITYP 7 4 330µA
GGAIN 0 23 VALUE={200*V(3,2)+V(42,43)+V(51)+V(53)+10E-6}
GB 0 27 VALUE={0.02*V(7,4)}
GLIM1 7 61 VALUE={MIN(0.02,V(7,61))}
GLIM2 62 4 VALUE={MIN(0.02,V(62,4))}
.MODEL NOUT NMOS(KF=0 KP=50 VTO=-1m)
.MODEL POUT PMOS(KF=0 KP=50 VTO=1m)
.MODEL DIN D(KF=0 RS=0)
.MODEL DVLIM D(BV=2 IS=1E-10 KF=0 RS=0)
.MODEL DVNOIX D(KF=5.15E-13 RS=0)
.MODEL DVNOI D(RS=0 KF=8.15E-13)
.ENDS LTC6081
*
.subckt LTC6409 1 2 3 4 5 6 7 8
A1 6 2 0 0 0 0 0 0 OTA g=0 in=4p ink=200K
C2 4 2 .5p Rpar=660K noiseless
C3 2 8 .5p noiseless Rpar=660K
C4 6 8 .5p Rpar=660K noiseless
C5 4 6 .5p Rpar=660K noiseless
C6 N015 0 .1f Rpar=100K noiseless
A3 0 N015 N005 0 0 0 N016 0 OTA g=34m Cout=1p en=.5n enk=200K asym Isrc=1.8m Isink=-1.6m Vlow=-1e308 Vhigh=1e308
G1 0 N012 N016 0 1m
D1 N016 0 NML
R2 4 3 150K noiseless
R4 4 5 160K noiseless
R10 5 8 53.33K noiseless
M1 4 N006 N009 N009 N temp=27
M2 8 N014 N009 N009 P temp=27
D2 N008 4 XU
D3 8 N008 XD
C7 N008 0 56e-18
G4 0 N021 N011 0 200n
C8 N021 0 56e-18
M3 4 N017 N019 N019 N temp=27
M4 8 N022 N019 N019 P temp=27
D6 N021 4 XU
D7 8 N021 XD
G6 N021 0 N012 0 200n
D4 N017 N019 Y
D5 N019 N022 Y
D8 N009 N014 Y
D9 N006 N009 Y
G5 0 N008 N012 0 200n
G3 0 N008 N011 0 200n
R9 7 N013 1Meg noiseless
R11 N013 1 1Meg noiseless
A8 3 8 0 0 0 0 N005 0 SCHMITT Vt=1 Vh=10m tau=100n
A5 N005 0 N008 N008 N008 N008 N006 N008 SCHMITT Vt=.5 Vh=10m Vhigh=0 Vlow=-10 Rout=10Meg Cout=50f
A7 N005 0 N008 N008 N008 N014 N008 N008 SCHMITT Vt=.5 Vh=10m Vhigh=10 Vlow=0 Rout=10Meg Cout=50f
A4 N005 0 N021 N021 N021 N021 N017 N021 SCHMITT Vt=.5 Vh=10m Vhigh=0 Vlow=-10 Rout=10Meg Cout=50f
A6 N005 0 N021 N021 N021 N022 N021 N021 SCHMITT Vt=.5 Vh=10m Vhigh=10 Vlow=0 Rout=10Meg Cout=50f
D11 N011 0 CML
A2 N013 5 N005 0 0 0 N011 0 OTA G=10m Iout=10m en=4.5N enk=200K Cout=50p Rout=100K Vlow=-1e308 Vhigh=1e308
B1 0 N015 I=10u*dnlim(uplim(V(2),V(4)-1.4,.1), V(8)-0.2, .1)+1n*V(2)
B2 N015 0 I=10u*dnlim(uplim(V(6),V(4)-1.39,.1), V(8)-.21, .1)+1n*V(6)
D10 4 8 43uA
R6 6 2 860 noiseless
L1 N012 0 .1051µ Rser=1.5K Rpar=3K noiseless
L2 N009 7 1n Rpar=8.5
L3 N019 1 1n Rpar=8.5
C19 4 N009 .375p
C12 N009 8 .375p
C13 7 8 .375p
C14 4 7 .375p
C15 4 1 .375p
C16 4 N019 .375p
C17 N019 8 .375p
C18 1 8 .375p
D13 4 2 33uA
D14 4 6 33uA
.model N VDMOS(Vto=-55m Kp=16.7)
.model P VDMOS(Vto=55m Kp=16.7 pchan)
.model XU D(Ron=1K Roff=10Meg Vfwd=-1.45 epsilon=.1 noiseless)
.model XD D(Ron=1K Roff=10Meg Vfwd =-.045 epsilon=.1 noiseless)
.model Y D(Ron=10K Roff=1T Vfwd=30m epsilon=10m noiseless)
.model CML D(Ron=1 Roff=50K Vfwd=6 Vrev=6 revepsilon=1 epsilon=1 noiseless)
.model NML D(Ron=1 Roff=50K Vfwd=8 Vrev=8 revepsilon=1 epsilon=1 noiseless)
.model 43uA D(Ron=10K Ilimit=43u epsilon=.5 noiseless)
.model 33uA D(Ron=5K Ilimit=33u epsilon=.5 noiseless)
.ends LTC6409
*
.subckt LT1999-x 1 2 3 4 5 6 7 8
D1 1 N012 A temp=27
M3 N005 I1 5 5 NN temp=27
M4 N004 I2 5 5 NN temp=27
A2 N004 N005 N002 5 5 5 I1 5 OTA G=5m Cout=100p Rout=100K
A3 N005 N004 N002 5 5 5 I2 5 OTA G=5m Cout=100p Rout=100K
C2 N005 N004 .1p
R7 5 N005 40Meg noiseless
A4 8 5 5 5 5 5 N002 5 SCHMITT Vt=1 Vh=10m Tau=1u
C4 1 7 1p
C5 7 5 1p
C6 8 5 1p
C8 3 5 1p
C9 2 5 1p
D7 5 2 5V
D8 5 3 5V
M1 1 N006 7 7 N temp=27
M2 5 N011 7 7 P temp=27
D9 N006 7 XN
A5 N002 5 N008 N008 N008 N008 N006 N008 SCHMITT Vt=.5 Vh=10m Vhigh=0 Vlow=-10 Rout=10Meg Cout=50f
A6 N002 5 N008 N008 N008 N011 N008 N008 SCHMITT Vt=.5 Vh=10m Vhigh=10 Vlow=0 Rout=10Meg Cout=50f
B1 0 X0 I=10u*dnlim(uplim(V(6),V(1)-{if(Gain<15,1.1,1)},.1), V(5)+{if(Gain<15,1.1,1)}, .1)
C7 X0 0 100f Rpar=100K noiseless
R2 1 N010 100Meg noiseless
R5 N010 5 100Meg noiseless
G5 0 N008 N010 0 1µ
C10 N008 0 90f Rpar=1Meg noiseless
A7 0 X0 N002 5 5 5 N010 5 OTA g=100u iout=37.5u en={Gain*97n} enk=8 Cout=12p Vlow=-1e308 Vhigh=1e308
C12 N005 5 2p Rser=10k noiseless
S1 1 6 N002 5 160K
S2 6 5 N002 5 160K
C1 1 6 1p
C3 6 5 1p
G2 N010 5 N010 1 50µ dir=1 vto=-440m
G7 5 N010 5 N010 50µ dir=1 vto=-400m
S3 N005 2 N002 5 4K
S4 N004 3 N002 5 4K
G1 X0 0 N001 0 10µ
S6 N012 N005 N002 5 800
S7 N004 N012 N002 5 800
A1 N004 3 N002 5 5 5 N001 5 OTA G=250u iout=5m Cout=.1p Vlow=-1e308 Vhigh=1e308
A8 2 N005 N002 5 5 5 N001 5 OTA G=250u iout=5m Cout=.1p Rout=1G Vlow=-1e308 Vhigh=1e308
D2 1 8 DSHUT
R3 N004 5 40Meg noiseless
D3 7 N011 XP
R4 7 N001 {4k*Gain} noiseless
.model N VDMOS(Vto=-300m Kp=33m)
.model P VDMOS(Vto=300m Kp=33m pchan)
.model NN VDMOS(Vto=-52m Kp=100m)
.model XN  D(Ron=1 Roff=1T Vfwd=1.06 epsilon=.1 noiseless)
.model XP  D(Ron=1 Roff=1T  Vfwd=1 epsilon=.1 noiseless)
.model Y D(Ron=1K Roff=1T Vfwd=1.85 Vrev=1.85 epsilon=2 revepsilon=2 noiseless)
.model A D(Cjo=2p noiseless)
.model 160K SW(Ron=160K Roff=920K Vt=.5 Vh=-.2 noiseless)
.model 4k SW(Ron=4k Roff=1G Vt=.5 Vh=-.4 noiseless)
.model 800 SW(Ron=4k Roff=1G Vt=.5 Vh=-.4 noiseless)
.model 5V D(Ron=10 Roff=1G Vfwd=5 epsilon=.5 noiseless)
.model DSHUT D(Ron=10k Roff=2Meg Vfwd=2.5 epsilon=.2 ilimit=.75u noiseless)
.ends LT1999-x




