* Copyright © Linear Technology Corp. 5/27/05. All rights reserved.

.subckt LT6106 1 2 3 4 5
C1 5 3 .2p
C2 3 2 .2p
C3 5 4 .2p
C4 4 2 .2p
C5 N002 0 20f Rpar=100K noiseless
C12 1 2 100f Rpar=1G
B1 N002 0 I=10u*dnlim(uplim(V(3),V(5)+.11,.1), V(5)-.71, .1) + 10n*V(3)
B2 0 N002 I=10u*dnlim(uplim(V(4),V(5)+.1,.1), V(5)-.7, .1)+ 10n*V(4)
M1 1 N004 3 3 POUT Temp=27
D1 5 N004 DLIMP
C6 5 N004 100f Rser=1Meg
A1 0 N005 0 0 0 0 N004 0 OTA g=200n ref=-17m linear vlow=-1e308 vhigh=1e308
A2 0 N006 0 0 0 0 N005 0 OTA g=200u linear Vhigh=1e308 Vlow=-1e308
C7 N005 1 3p
D2 N005 0 DLIM
A3 0 N002 0 0 0 0 N006 0 OTA g=1u linear rout=1Meg Cout=200f Vhigh=15m Vlow=-30m
D3 4 2 DBIAS
D4 3 2 DBIAS
D5 5 2 DP
D6 3 4 DIN
.model DLIM D(Ron=100 Roff=700k Vfwd=400m Vrev=600m epsilon=10m revepsilon=10m)
.model DLIMP D(Ron=1k Roff=100Meg Vfwd=4 Vrev=-310m  epsilon=10m revepsilon=10m)
.model POUT VDMOS(Vto=-300m Kp=30m mtriode=10 rs=1k pchan)
.model DBIAS D(Ron=1Meg Roff=1G Vfwd=.5 epsilon=100m ilimit=15n)
.model DP D(Ron=1k Roff=1G Vfwd=.5 epsilon=100m ilimit=60u)
.model DIN D(Ron=28k Roff=100G Vfwd=1 epsilon=100m Vrev=1 epsilon=100m)
.ends LT6106
*
*Pinout (same as IC): IN- VOCM V+ OUT+ OUT- V- EN/ IN+ -OUTF +OUTF
.SUBCKT LTC6403-1 1 2 3 4 5 6 7 8 9 10
CG1P 26 0 1.9e-9
CG3P 28 0 3.4E-9
CG5M 25 0 20E-12
CG5P 24 0 20E-12
CIN2 3 8 1p
CIN3 1 3 1p
CIN4 6 8 1p
CIN5 1 6 1p
COCM1 61 0 7p
COCM3 6 2 4E-12
CPSRR1 53 3 4e-14
CPSRR2 54 6 4e-14
DIN1 8 3 DIN
DIN2 1 3 DIN
DIN3 6 8 DIN
DIN4 6 1 DIN
DIN5 51 8 DIN
DIN6 1 51 DIN
DIN7 8 62 DIN
DIN8 62 1 DIN
DVL1P 27 26 DVLIM
DVL2P 27 0 DVLIM
DVNF 42 0 DVNOI
DVNFX 43 0 DVNOIX
ESHD1 88 0 VALUE={0.5+0.5*TANH(5*(1.2-V(3,7)))}
GG1P 0 26 VALUE={0.4*TANH(V(23))}
GG3P 0 28 26 0 6.4832
GG5M 0 25 0 28 6.4832
GG5P 0 24 28 0 6.4832
GGAINP 0 23 22 1 14
GINOI1 1 0 0 44 1m
GINOI2 8 0 0 45 1m
GINX 0 22 VALUE={V(8)+3.1E-3*(0.5*(V(8)+V(1))-V(6))-V(52)+V(42,43)+V(41)-0.0m}
GOCM1 0 61 VALUE={V(88)*((V(2)-(V(4)+V(5))/2)+1.5m)+10*V(41)}
GOCM2 0 24 61 0 6.283
GOCM3 0 25 61 0 6.283
GOUT1 31 4 VALUE={MIN(0.065,V(88)*0.143*V(31,4))}
GOUT2 32 5 VALUE={MIN(0.065,V(88)*0.143*V(32,5))}
GPSRR 0 52 3 6 40E-7
GPWR 3 6 VALUE={V(88)*(V(3,6)/620+5E-3)+0.9E-3}
IBIASDEF1 0 8 9u
IBIASDEF2 0 1 9u
IDUM1 41 0 0
IDUM2 45 44 0
IVNF 0 42 1
IVNFX 0 43 1
MOUT1 3 24 31 31 NOUT
MOUT1M 3 25 32 32 NOUT
MOUT2 6 24 31 31 POUT
MOUT2M 6 25 32 32 POUT
RAP 23 0 1
RG1P 26 0 400k
RG3P 28 0 0.159155
RG5M 25 0 0.159155
RG5P 24 0 0.159155
RINOI1 44 0 380
RINOI2 45 0 380
RINX 22 0 1
ROCM1 61 0 100k
RPSRR1 52 0 10
RPSRR2 52 53 30
RPSRR3 52 54 30
RSHDN2 7 3 100k
RVNOI 41 0 10
RVOCM3 3 2 47k
RVOCM4 2 6 47k
RFILTP 4 10 100
RFILTN 5 9 100
CFILT 9 10 12pF
CFILTP 9 6 12pF
CFILTM 10 6 12pF
.MODEL NOUT NMOS(KP=1 VTO=1M)
.MODEL POUT PMOS(KP=1 VTO=-1M)
.MODEL DIN D(IS=1E-12 KF=0 RS=0)
.MODEL DVLIM D(BV=5 IS=1E-18 KF=0 RS=0 XTI=0)
.MODEL DVNOIX D(KF=0 RS=0)
.MODEL DVNOI D(RS=0 KF= 3E-12)
.ENDS LTC6403-1
* 5/16/08
*Pinout (same as IC): IN- VOCM V+ OUT+ OUT- V- EN/ IN+ -OUTF +OUTF
.SUBCKT LTC6404-1 1 2 3 4 5 6 7 8 9 10
CG1P 26 0 0.55E-9
CG3P 28 0 1.8E-9
CG5M 25 0 20E-12
CG5P 24 0 20E-12
CIN2 3 8 1p
CIN3 1 3 1p
CIN4 6 8 1p
CIN5 1 6 1p
COCM1 61 0 7p
COCM3 6 2 4E-12
CPSRR1 53 3 4e-14
CPSRR2 54 6 4e-14
DIN1 8 3 DIN
DIN2 1 3 DIN
DIN3 6 8 DIN
DIN4 6 1 DIN
DIN5 51 8 DIN
DIN6 1 51 DIN
DIN7 8 62 DIN
DIN8 62 1 DIN
DVL1P 27 26 DVLIM
DVL2P 27 0 DVLIM
DVNF 42 0 DVNOI
DVNFX 43 0 DVNOIX
ESHD1 88 0 VALUE={0.5+0.5*TANH(5*(1.2-V(3,7)))}
GG1P 0 26 VALUE={0.4*TANH(V(23))}
GG3P 0 28 26 0 6.4832
GG5M 0 25 0 28 6.4832
GG5P 0 24 28 0 6.4832
GGAINP 0 23 22 1 14
GINOI1 1 0 0 44 1m
GINOI2 8 0 0 45 1m
GINX 0 22 VALUE={V(8)+3.1E-3*(0.5*(V(8)+V(1))-V(6))-V(52)+V(42,43)+V(41)-0.0m}
GOCM1 0 61 VALUE={V(88)*((V(2)-(V(4)+V(5))/2)+1.5m)+10*V(41)}
GOCM2 0 24 61 0 6.283
GOCM3 0 25 61 0 6.283
GOUT1 31 4 VALUE={MIN(0.065,V(88)*0.143*V(31,4))}
GOUT2 32 5 VALUE={MIN(0.065,V(88)*0.143*V(32,5))}
GPSRR 0 52 3 6 40E-7
GPWR 3 6 VALUE={V(88)*(V(3,6)/264+15E-3)+0.9E-3}
IBIASDEF1 0 8 23u
IBIASDEF2 0 1 24u
IDUM1 41 0 0
IDUM2 45 44 0
IVNF 0 42 1
IVNFX 0 43 1
MOUT1 3 24 31 31 NOUT
MOUT1M 3 25 32 32 NOUT
MOUT2 6 24 31 31 POUT
MOUT2M 6 25 32 32 POUT
RAP 23 0 1
RG1P 26 0 400k
RG3P 28 0 0.159155
RG5M 25 0 0.159155
RG5P 24 0 0.159155
RINOI1 44 0 380
RINOI2 45 0 380
RINX 22 0 1
ROCM1 61 0 100k
RPSRR1 52 0 10
RPSRR2 52 53 30
RPSRR3 52 54 30
RSHDN2 7 3 100k
RVNOI 41 0 10
RVOCM3 3 2 47k
RVOCM4 2 6 47k
RFILTP 4 10 50
RFILTN 5 9 50
CFILT 9 10 12pF
CFILTP 9 6 12pF
CFILTM 10 6 12pF
.MODEL NOUT NMOS(KP=1 VTO=1M)
.MODEL POUT PMOS(KP=1 VTO=-1M)
.MODEL DIN D(IS=1E-12 KF=0 RS=0)
.MODEL DVLIM D(BV=5 IS=1E-18 KF=0 RS=0 XTI=0)
.MODEL DVNOIX D(KF=0 RS=0)
.MODEL DVNOI D(RS=0 KF= 3E-12)
.ENDS LTC6404-1
* 5/22/08
*Pinout (same as IC): IN- VOCM V+ OUT+ OUT- V- EN/ IN+ -OUTF +OUTF
.SUBCKT LTC6404-2 1 2 3 4 5 6 7 8 9 10
CG1P 26 0 0.33E-9
CG3P 28 0 2E-9
CG5M 25 0 20E-12
CG5P 24 0 20E-12
CIN2 3 8 1p
CIN3 1 3 1p
CIN4 6 8 1p
CIN5 1 6 1p
COCM1 61 0 7p
COCM3 6 2 4E-12
CPSRR1 53 3 4e-14
CPSRR2 54 6 4e-14
DIN1 8 3 DIN
DIN2 1 3 DIN
DIN3 6 8 DIN
DIN4 6 1 DIN
DIN5 51 8 DIN
DIN6 1 51 DIN
DIN7 8 62 DIN
DIN8 62 1 DIN
DVL1P 27 26 DVLIM
DVL2P 27 0 DVLIM
DVNF 42 0 DVNOI
DVNFX 43 0 DVNOIX
ESHD1 88 0 VALUE={0.5+0.5*TANH(5*(1.2-V(3,7)))}
GG1P 0 26 VALUE={0.4*TANH(V(23))}
GG3P 0 28 26 0 6.4832
GG5M 0 25 0 28 6.4832
GG5P 0 24 28 0 6.4832
GGAINP 0 23 22 1 14
GINOI1 1 0 0 44 1m
GINOI2 8 0 0 45 1m
GINX 0 22 VALUE={V(8)+3.1E-3*(0.5*(V(8)+V(1))-V(6))-V(52)+V(42,43)+V(41)-0.0m}
GOCM1 0 61 VALUE={V(88)*((V(2)-(V(4)+V(5))/2)+1.5m)+10*V(41)}
GOCM2 0 24 61 0 6.283
GOCM3 0 25 61 0 6.283
GOUT1 31 4 VALUE={MIN(0.065,V(88)*0.143*V(31,4))}
GOUT2 32 5 VALUE={MIN(0.065,V(88)*0.143*V(32,5))}
GPSRR 0 52 3 6 40E-7
GPWR 3 6 VALUE={V(88)*(V(3,6)/216.2+15E-3)+0.9E-3}
IBIASDEF1 0 8 23u
IBIASDEF2 0 1 24u
IDUM1 41 0 0
IDUM2 45 44 0
IVNF 0 42 1
IVNFX 0 43 1
MOUT1 3 24 31 31 NOUT
MOUT1M 3 25 32 32 NOUT
MOUT2 6 24 31 31 POUT
MOUT2M 6 25 32 32 POUT
RAP 23 0 1
RG1P 26 0 400k
RG3P 28 0 0.159155
RG5M 25 0 0.159155
RG5P 24 0 0.159155
RINOI1 44 0 380
RINOI2 45 0 380
RINX 22 0 1
ROCM1 61 0 100k
RPSRR1 52 0 10
RPSRR2 52 53 30
RPSRR3 52 54 30
RSHDN2 7 3 100k
RVNOI 41 0 10
RVOCM3 3 2 28k
RVOCM4 2 6 28k
RFILTP 4 10 50
RFILTN 5 9 50
CFILT 9 10 12pF
CFILTP 9 6 12pF
CFILTM 10 6 12pF
.MODEL NOUT NMOS(KP=1 VTO=1M)
.MODEL POUT PMOS(KP=1 VTO=-1M)
.MODEL DIN D(IS=1E-12 KF=0 RS=0)
.MODEL DVLIM D(BV=5 IS=1E-18 KF=0 RS=0 XTI=0)
.MODEL DVNOIX D(KF=0 RS=0)
.MODEL DVNOI D(RS=0 KF= 3E-12)
.ENDS LTC6404-2
* 5/16/08
*Pinout (same as IC): IN- VOCM V+ OUT+ OUT- V- EN/ IN+ -OUTF +OUTF
.SUBCKT LTC6404-4 1 2 3 4 5 6 7 8 9 10
CG1P 26 0 0.27E-9
CG3P 28 0 1.4E-9
CG5M 25 0 20E-12
CG5P 24 0 20E-12
CIN2 3 8 1p
CIN3 1 3 1p
CIN4 6 8 1p
CIN5 1 6 1p
COCM1 61 0 7p
COCM3 6 2 4E-12
CPSRR1 53 3 4e-14
CPSRR2 54 6 4e-14
DIN1 8 3 DIN
DIN2 1 3 DIN
DIN3 6 8 DIN
DIN4 6 1 DIN
DIN5 51 8 DIN
DIN6 1 51 DIN
DIN7 8 62 DIN
DIN8 62 1 DIN
DVL1P 27 26 DVLIM
DVL2P 27 0 DVLIM
DVNF 42 0 DVNOI
DVNFX 43 0 DVNOIX
ESHD1 88 0 VALUE={0.5+0.5*TANH(5*(1.2-V(3,7)))}
GG1P 0 26 VALUE={0.4*TANH(V(23))}
GG3P 0 28 26 0 6.4832
GG5M 0 25 0 28 6.4832
GG5P 0 24 28 0 6.4832
GGAINP 0 23 22 1 14
GINOI1 1 0 0 44 1m
GINOI2 8 0 0 45 1m
GINX 0 22 VALUE={V(8)+3.1E-3*(0.5*(V(8)+V(1))-V(6))-V(52)+V(42,43)+V(41)-0.0m}
GOCM1 0 61 VALUE={V(88)*((V(2)-(V(4)+V(5))/2)+1.5m)+10*V(41)}
GOCM2 0 24 61 0 6.283
GOCM3 0 25 61 0 6.283
GOUT1 31 4 VALUE={MIN(0.065,V(88)*0.143*V(31,4))}
GOUT2 32 5 VALUE={MIN(0.065,V(88)*0.143*V(32,5))}
GPSRR 0 52 3 6 40E-7
GPWR 3 6 VALUE={V(88)*(V(3,6)/264+15E-3)+0.9E-3}
IBIASDEF1 0 8 23u
IBIASDEF2 0 1 24u
IDUM1 41 0 0
IDUM2 45 44 0
IVNF 0 42 1
IVNFX 0 43 1
MOUT1 3 24 31 31 NOUT
MOUT1M 3 25 32 32 NOUT
MOUT2 6 24 31 31 POUT
MOUT2M 6 25 32 32 POUT
RAP 23 0 1
RG1P 26 0 400k
RG3P 28 0 0.159155
RG5M 25 0 0.159155
RG5P 24 0 0.159155
RINOI1 44 0 380
RINOI2 45 0 380
RINX 22 0 1
ROCM1 61 0 100k
RPSRR1 52 0 10
RPSRR2 52 53 30
RPSRR3 52 54 30
RSHDN2 7 3 100k
RVNOI 41 0 10
RVOCM3 3 2 47k
RVOCM4 2 6 47k
RFILTP 4 10 50
RFILTN 5 9 50
CFILT 9 10 12pF
CFILTP 9 6 12pF
CFILTM 10 6 12pF
.MODEL NOUT NMOS(KP=1 VTO=1M)
.MODEL POUT PMOS(KP=1 VTO=-1M)
.MODEL DIN D(IS=1E-12 KF=0 RS=0)
.MODEL DVLIM D(BV=5 IS=1E-18 KF=0 RS=0 XTI=0)
.MODEL DVNOIX D(KF=0 RS=0)
.MODEL DVNOI D(RS=0 KF= 3E-12)
.ENDS LTC6404-4
* 5/16/08
*Pinout (same as IC): IN- VOCM V+ OUT+ OUT- V- EN/ IN+ -OUTF +OUTF
.SUBCKT LTC6405 1 2 3 4 5 6 7 8 9 10
CG1P 26 0 0.64E-9
CG3P 28 0 0.18E-9
CG5M 25 0 20E-12
CG5P 24 0 20E-12
CIN2 3 8 1p
CIN3 1 3 1p
CIN4 6 8 1p
CIN5 1 6 1p
COCM1 61 0 7p
COCM3 6 2 4E-12
CPSRR1 53 3 4e-14
CPSRR2 54 6 4e-14
DIN1 8 3 DIN
DIN2 1 3 DIN
DIN3 6 8 DIN
DIN4 6 1 DIN
DIN5 51 8 DIN
DIN6 1 51 DIN
DIN7 8 62 DIN
DIN8 62 1 DIN
DVL1P 27 26 DVLIM
DVL2P 27 0 DVLIM
DVNF 42 0 DVNOI
DVNFX 43 0 DVNOIX
ESHD1 88 0 VALUE={0.5+0.5*TANH(5*(3.2-V(3,7)))}
GG1P 0 26 VALUE={0.4*TANH(V(23))}
GG3P 0 28 26 0 6.4832
GG5M 0 25 0 28 6.4832
GG5P 0 24 28 0 6.4832
GGAINP 0 23 22 1 14
GINOI1 1 0 0 44 1m
GINOI2 8 0 0 45 1m
GINX 0 22 VALUE={V(8)+3.1E-3*(0.5*(V(8)+V(1))-V(6))-V(52)+V(42,43)+V(41)-0.0m}
GOCM1 0 61 VALUE={V(88)*((V(2)-(V(4)+V(5))/2)+1.5m)+10*V(41)}
GOCM2 0 24 61 0 6.283
GOCM3 0 25 61 0 6.283
GOUT1 31 4 VALUE={MIN(0.065,V(88)*0.143*V(31,4))}
GOUT2 32 5 VALUE={MIN(0.065,V(88)*0.143*V(32,5))}
GPSRR 0 52 3 6 40E-7
GPWR 3 6 VALUE={V(88)*(V(3,6)/964+15E-3)+0.9E-3}
IBIASDEF1 0 8 23u
IBIASDEF2 0 1 24u
IDUM1 41 0 0
IDUM2 45 44 0
IVNF 0 42 1
IVNFX 0 43 1
MOUT1 3 24 31 31 NOUT
MOUT1M 3 25 32 32 NOUT
MOUT2 6 24 31 31 POUT
MOUT2M 6 25 32 32 POUT
RAP 23 0 1
RG1P 26 0 400k
RG3P 28 0 0.159155
RG5M 25 0 0.159155
RG5P 24 0 0.159155
RINOI1 44 0 380
RINOI2 45 0 380
RINX 22 0 1
ROCM1 61 0 100k
RPSRR1 52 0 10
RPSRR2 52 53 30
RPSRR3 52 54 30
RSHDN2 7 3 100k
RVNOI 41 0 10
RVOCM3 3 2 37k
RVOCM4 2 6 37k
RFILTP 4 10 50
RFILTN 5 9 50
CFILT 9 10 1.25pF
CFILTP 9 6 1.25pF
CFILTM 10 6 1.25pF
.MODEL NOUT NMOS(KP=1 VTO=1M)
.MODEL POUT PMOS(KP=1 VTO=-1M)
.MODEL DIN D(IS=1E-12 KF=0 RS=0)
.MODEL DVLIM D(BV=5 IS=1E-18 KF=0 RS=0 XTI=0)
.MODEL DVNOIX D(KF=0 RS=0)
.MODEL DVNOI D(RS=0 KF= 3E-12)
.ENDS LTC6405
* 6/16/08
*Pinout (same as IC): IN- VOCM V+ OUT+ OUT- V- EN/ IN+ -OUTF +OUTF
.SUBCKT LTC6406 1 2 3 4 5 6 7 8 9 10
CG1P 26 0 0.83E-9
CG3P 28 0 2.1E-9
CG5M 25 0 20E-12
CG5P 24 0 20E-12
CIN2 3 8 1p
CIN3 1 3 1p
CIN4 6 8 1p
CIN5 1 6 1p
COCM1 61 0 7p
COCM3 6 2 4E-12
CPSRR1 53 3 4e-14
CPSRR2 54 6 4e-14
DIN1 8 3 DIN
DIN2 1 3 DIN
DIN3 6 8 DIN
DIN4 6 1 DIN
DIN5 51 8 DIN
DIN6 1 51 DIN
DIN7 8 62 DIN
DIN8 62 1 DIN
DVL1P 27 26 DVLIM
DVL2P 27 0 DVLIM
DVNF 42 0 DVNOI
DVNFX 43 0 DVNOIX
ESHD1 88 0 VALUE={0.5+0.5*TANH(5*(1.2-V(3,7)))}
GG1P 0 26 VALUE={0.4*TANH(V(23))}
GG3P 0 28 26 0 6.4832
GG5M 0 25 0 28 6.4832
GG5P 0 24 28 0 6.4832
GGAINP 0 23 22 1 14
GINOI1 1 0 0 44 1m
GINOI2 8 0 0 45 1m
GINX 0 22 VALUE={V(8)+3.1E-3*(0.5*(V(8)+V(1))-V(6))-V(52)+V(42,43)+V(41)-0.0m}
GOCM1 0 61 VALUE={V(88)*((V(2)-(V(4)+V(5))/2)+1.5m)+10*V(41)}
GOCM2 0 24 61 0 6.283
GOCM3 0 25 61 0 6.283
GOUT1 31 4 VALUE={MIN(0.055,V(88)*0.143*V(31,4))}
GOUT2 32 5 VALUE={MIN(0.055,V(88)*0.143*V(32,5))}
GPSRR 0 52 3 6 40E-7
GPWR 3 6 VALUE={V(88)*(V(3,6)/1444+15E-3)+0.9E-3}
IBIASDEF1 0 8 23u
IBIASDEF2 0 1 24u
IDUM1 41 0 0
IDUM2 45 44 0
IVNF 0 42 1
IVNFX 0 43 1
MOUT1 3 24 31 31 NOUT
MOUT1M 3 25 32 32 NOUT
MOUT2 6 24 31 31 POUT
MOUT2M 6 25 32 32 POUT
RAP 23 0 1
RG1P 26 0 400k
RG3P 28 0 0.159155
RG5M 25 0 0.159155
RG5P 24 0 0.159155
RINOI1 44 0 380
RINOI2 45 0 380
RINX 22 0 1
ROCM1 61 0 100k
RPSRR1 52 0 10
RPSRR2 52 53 30
RPSRR3 52 54 30
RSHDN2 7 3 100k
RVNOI 41 0 10
RVOCM3 3 2 40k
RVOCM4 2 6 30k
RFILTP 4 10 50
RFILTN 5 9 50
CFILT 9 10 1.25pF
CFILTP 9 6 1.25pF
CFILTM 10 6 1.25pF
.MODEL NOUT NMOS(KP=1 VTO=1M)
.MODEL POUT PMOS(KP=1 VTO=-1M)
.MODEL DIN D(IS=1E-12 KF=0 RS=0)
.MODEL DVLIM D(BV=5 IS=1E-18 KF=0 RS=0 XTI=0)
.MODEL DVNOIX D(KF=0 RS=0)
.MODEL DVNOI D(RS=0 KF= 3E-12)
.ENDS LTC6406
*
.subckt LT1995 1 2 3 4 5 6 7 8 9 10
A1 VINM VINP 0 0 0 0 0 0 OTA g=0 in=.9p ink=90
C2 VINM VINP 1p Rpar=5Meg noiseless
B1 0 N003 I=10u*dnlim(uplim(V(VINP),V(7)-1.4,.1), V(4)+1.6, .1)+1n*V(VINP)
B2 N003 0 I=10u*dnlim(uplim(V(VINM),V(7)-1.39,.1), V(4)+1.59, .1)+1n*V(VINM)
C9 7 VINM 1.5p Rpar=100Meg noiseless
C10 N003 0 7f Rpar=100K noiseless
M1 7 N005 6 6 N temp=27
M2 4 N005 6 6 P temp=27
C3 7 6 1p
D5 N005 6 YU
D6 6 N005 YD
R2 7 N006 42Meg noiseless
R3 N006 4 42Meg noiseless
C13 N006 6 2p Rser=5k noiseless
C4 6 4 1p
C1 VINM 4 1.5p Rpar=100Meg noiseless
C6 7 VINP 1.5p Rpar=100Meg noiseless
C7 VINP 4 1.5p Rpar=100Meg noiseless
A6 0 N003 0 0 0 0 N008 0 OTA g=1u linear Cout=1.3f en=9n enk=110 Vhigh=1e308 Vlow=-1e308
D2 VINM 4 DBIAS
D4 VINP 4 DBIAS
A3 0 N008 0 0 0 0 N006 0 OTA g=534u iout=10m Cout=1.7p Vlow=-1e308 Vhigh=1e308
D1 N008 0 DSlewLim
G1 0 N005 N006 0 1µ
C8 0 N005 1f Rpar=1Meg noiseless
D3 7 4 DC
RM1 VINM 10 4k
RM2 VINM 9 2k
RM4 VINM 8 1k
C11 VINM 9 .5p
RP1 VINP 1 4k
RP2 VINP 2 2k
RP4 VINP 3 1k
C12 VINP 2 .5p
R11 6 VINM 4k
C14 6 VINM .3p
R12 VINP 5 4k
C15 VINP 5 .3p
C5 N006 6 30p Rser=200k noiseless
G2 N006 0 N006 7 100m dir=1 vto=-.814
G3 4 N006 4 N006 100m dir=1 vto=-.814
.model YU D(Ron=100 Roff=1T Vfwd=.805 epsilon=.1 noiseless)
.model YD D(Ron=100 Roff=1T Vfwd=.785 epsilon=.1 noiseless)
.model N VDMOS(Vto=-130m Kp=120m)
.model P VDMOS(Vto=130m Kp=120m pchan)
.model DBIAS D(Ron=1Meg Roff=1G Vfwd=.6 ilimit=80n noiseless)
.model DSlewLim D(Ron=550k Roff=1Meg Vfwd=1 Vrev=1 epsilon=.1 revepsilon=.1 noiseless)
.model DC D(Ron=2k Roff=1G Vfwd=1 epsilon=.1 ilimit=2.99m noiseless)
.ends LT1995
*
* LTC6087 MAR 5 10 PTK
.subckt LTC6087 3 2 7 4 1
GG3 0 34 25 0 6.2832
RG3 34 0 0.159155 noiseless
CG3 34 0 1µ
RG2 25 0 61 noiseless
CG2 25 0 1µ
GG5 0 52 43 0 6.2832
RG5 52 0 0.159155 noiseless
CG5 52 0 0.02µ
RG1 16 0 1 noiseless
IBIAS1 7 2 1p
Cdm1 2 3 0.7p
DIN2 2 7 DIN
DIN1 4 2 DIN
Ccm1 7 2 4p
GG6 0 61 52 0 0.03021
GG2 0 25 VALUE={7.2*TANH(V(16))}
GG1 0 16 VALUE={{18}*(V(3,2)+{206u})+V(VCM)+V(VNS)+V(VPR)}
GG4 0 43 34 0 6.2832
RG4 43 0 0.159155 noiseless
CG4 43 0 0.02µ
RVNOI1 N3 0 1.87E6
DVNF1 N2 0 DVNOI
IVNF1 0 N2 1
IDUM1 N3 0 0
DVNFX1 N1 0 DVNOIX
IVNFX1 0 N1 1
ITYP1 7 4 1.1m
DVL1 P001 0 DVLIM
DVL2 P001 25 DVLIM
IBIAS2 7 3 1.5p
DIN3 3 7 DIN
DIN4 4 3 DIN
Ccm2 7 3 4p
RN1 VNS 0 1 noiseless
GG7 0 VNS VALUE={V(N2,N1)+V(N3)}
MOUT1 Vp1 61 N008 N008 NOUT
MOUT2 Vm1 61 N008 N008 POUT
GLIM1 7 Vp1 VALUE={MIN({45m},V(7,Vp1))}
GLIM2 Vm1 4 VALUE={MIN({45m},V(Vm1,4))}
Lcs1 4 N007 500m Rser=0.19 Rpar=1MEG
Lcs2 4 N009 500m Rser=0.19 Rpar=1MEG
GCS1 7 3 N009 4 1E-5
GCS2 7 2 N007 4 1E-5
L1 N006 0 1.42µ
RZ1 N006 61 33.1 noiseless
RG6 N006 0 529 noiseless
Lzout1 N008 1 2.5µ Rser=2.5 Rpar=250
GPSRR1 0 N004 7 4 1.6E-3
RPS5 N004 0 1 noiseless
CPS2 7 N001 1p
RPS2 N001 0 10k noiseless
E1 VPR N004 N001 N002 1
CPS1 4 N002 1p
RPS1 N002 0 100k noiseless
EICM1 N003 0 VALUE={(V(3)+V(2))/2}
CCM3 VCM N003 2500p
RCM1 VCM N005 0.5 noiseless
L2 N005 0 70n
GCM1 0 VCM N003 4 5E-5
.MODEL DIN D(KF=0 RS=0)
.MODEL DVLIM D(BV=250 IS=1E-9 KF=0 RS=0)
.MODEL DVNOIX D(KF=16E-9 RS=0)
.MODEL DVNOI D(KF=9E-9 RS=0)
.MODEL NOUT NMOS(KP=250 VTO=-1m)
.MODEL POUT PMOS(KP=250 VTO=1m)
.ends LTC6087
* LTC6088 MAR 5 10 PTK
.subckt LTC6088 3 2 7 4 1
GG3 0 34 25 0 6.2832
RG3 34 0 0.159155 noiseless
CG3 34 0 1µ
RG2 25 0 61 noiseless
CG2 25 0 1µ
GG5 0 52 43 0 6.2832
RG5 52 0 0.159155 noiseless
CG5 52 0 0.02µ
RG1 16 0 1 noiseless
IBIAS1 7 2 1p
Cdm1 2 3 0.7p
DIN2 2 7 DIN
DIN1 4 2 DIN
Ccm1 7 2 4p
GG6 0 61 52 0 0.03021
GG2 0 25 VALUE={7.2*TANH(V(16))}
GG1 0 16 VALUE={{18}*(V(3,2)+{206u})+V(VCM)+V(VNS)+V(VPR)}
GG4 0 43 34 0 6.2832
RG4 43 0 0.159155 noiseless
CG4 43 0 0.02µ
RVNOI1 N3 0 1.87E6
DVNF1 N2 0 DVNOI
IVNF1 0 N2 1
IDUM1 N3 0 0
DVNFX1 N1 0 DVNOIX
IVNFX1 0 N1 1
ITYP1 7 4 1.1m
DVL1 P001 0 DVLIM
DVL2 P001 25 DVLIM
IBIAS2 7 3 1.5p
DIN3 3 7 DIN
DIN4 4 3 DIN
Ccm2 7 3 4p
RN1 VNS 0 1 noiseless
GG7 0 VNS VALUE={V(N2,N1)+V(N3)}
MOUT1 Vp1 61 N008 N008 NOUT
MOUT2 Vm1 61 N008 N008 POUT
GLIM1 7 Vp1 VALUE={MIN({45m},V(7,Vp1))}
GLIM2 Vm1 4 VALUE={MIN({45m},V(Vm1,4))}
Lcs1 4 N007 500m Rser=0.19 Rpar=1MEG
Lcs2 4 N009 500m Rser=0.19 Rpar=1MEG
GCS1 7 3 N009 4 1E-5
GCS2 7 2 N007 4 1E-5
L1 N006 0 1.42µ
RZ1 N006 61 33.1 noiseless
RG6 N006 0 529 noiseless
Lzout1 N008 1 2.5µ Rser=2.5 Rpar=250
GPSRR1 0 N004 7 4 1.6E-3
RPS5 N004 0 1 noiseless
CPS2 7 N001 1p
RPS2 N001 0 10k noiseless
E1 VPR N004 N001 N002 1
CPS1 4 N002 1p
RPS1 N002 0 100k noiseless
EICM1 N003 0 VALUE={(V(3)+V(2))/2}
CCM3 VCM N003 2500p
RCM1 VCM N005 0.5 noiseless
L2 N005 0 70nH
GCM1 0 VCM N003 4 5E-5
.MODEL DIN D(KF=0 RS=0)
.MODEL DVLIM D(BV=250 IS=1E-9 KF=0 RS=0)
.MODEL DVNOIX D(KF=16E-9 RS=0)
.MODEL DVNOI D(KF=9E-9 RS=0)
.MODEL NOUT NMOS (KP=250 VTO=-1m)
.MODEL POUT PMOS (KP=250 VTO=1m)
.ends LTC6088
*****************************************************
* LTC6246 MAR 4 10 PTK
* 				 OUT V- IN+ IN- SHDN V+
.subckt LTC6246 1 4 3 2 9 7
GG1 0 34 25 0 6.2832
RG1 34 0 0.159155 noiseless
CG1 34 0 0.214µ
RG2 25 0 3.4 noiseless
CG2 25 0 1µ
GG2 0 52 43 0 6.2832
RG3 52 0 0.159155 noiseless
CG3 52 0 3400p
RG4 16 0 1 noiseless
IBIAS1 7 2 30nA
Cdm1 2 3 1.6p
DIN1 2 7 DIN
DIN2 4 2 DIN
Ccm1 7 2 0.4p
GG3 0 61 52 0 0.1742
GG4 0 25 VALUE={90*TANH(V(16))}
GG5 0 16 VALUE={{14.2}*(V(3,2)+{-1.01m})+V(vns)+V(VCM)+V(VPR)}
GG6 0 43 34 0 6.2832
RG5 43 0 0.159155 noiseless
CG4 43 0 3400p
GCM1 0 VCM N007 4 2.5E-8
RCM1 VCM 0 1k noiseless
EICM1 N007 0 VALUE={(V(3)+V(2))/2}
RVNOI1 N3 0 214k
DVNF1 N2 0 DVNOI
IVNF1 0 N2 1
IDUM1 N3 0 0
DVNFX1 N1 0 DVNOIX
IVNFX1 0 N1 1
GPSRR1 0 VPR 7 4 3E-3
RPSRR1 VPR 0 1 noiseless
RPSRR2 VPR N008 1k noiseless
CPSRR1 N008 7 100p
RPSRR3 VPR N009 1k noiseless
CPSRR2 N009 4 10p
CCM2 VCM N007 0.1p
IBIAS2 7 3 40nA
DIN3 3 7 DIN
DIN4 4 3 DIN
Ccm3 7 3 0.4p
RN1 VNS 0 1 noiseless
GG7 0 VNS VALUE={V(N2,N1)+V(N3)}
MOUT1 Vp1 N015 N016 N016 NOUT
MOUT2 Vm1 N018 N016 N016 POUT
GLIM1 N012 Vp1 VALUE={MIN({30m},V(7,Vp1))}
GLIM2 Vm1 N021 VALUE={MIN({40m},V(Vm1,4))}
L1 N010 0 70n
RZ1 N010 61 5.74 noiseless
RG6 N010 0 340 noiseless
S1 N015 61 VH 0 SW1
DVL1 P001 0 DVLIM
DVL2 P001 25 DVLIM
Vs1 N001 0 1mV
G1 7 4 Vis 0 1
S2 0 Vis N004 0 SW1
R1 N001 Vis 22.75
S3 0 N004 N006 0 SW2
Rsh1 N003 N002 2.5k
Csh1 N003 0 1.51n
Rsh2 Vsw N004 2.5k
V1 Vsw 0 4V
S4 Vsw N002 9 4 SW1
S5 N005 Vsw N003 0 SW2
Rsh3 0 N002 100
DIN5 N003 N002 DIN
Rsh4 N006 N005 2.5k
Csh2 N006 0 520p
Rsh5 0 N005 100
Csh3 N004 0 520p
S8 N018 61 VH 0 SW1
G2 9 7 Vis 0 1.6E-3
Rsh6 Vsw 9 1k
S9 0 VL N006 0 SW2
Rsh7 Vsw VL 1k
S10 0 VH VL 0 SW2
Rsh8 Vsw VH 1k
Lzout1 N016 N017 25n Rser=34 Rpar=52
S11 1 N017 VH 0 SW1
G3 7 2 4 N011 1E-3
Rcs1 N014 N011 124k
C1 N011 N014 1µ
Rcs2 4 N013 250
Rcs3 N014 N013 124k
C2 N013 N014 0.25µ
G4 7 3 4 N022 1E-3
Rcs4 N020 N022 124k
C3 N022 N020 1µ
Rcs5 4 N019 250
Rcs6 N020 N019 124k
C4 N019 N020 0.25µ
S6 N012 7 VH 0 SW1
S7 N021 4 VH 0 SW1
S12 0 N012 VL 0 SW1
S13 0 N021 VL 0 SW1
.MODEL DIN D(KF=0 RS=0)
.MODEL DVLIM D(BV=7  IS=1E-9  KF=0 RS=0)
.MODEL DVNOIX   D(KF=5.2E-9  RS=0)
.MODEL DVNOI     D(KF=1E-9     RS=0)
.MODEL DVNOIZ   D(KF=1E-9   RS=0)
.model  SW1  SW(Ron=1 Roff=1G Vt=2    Vh=0)
.model  SW2  SW(Ron=0.1 Roff=1G Vt=2.5  Vh=0)
.MODEL NOUT NMOS (KP=16   VTO=0)
.MODEL POUT PMOS  (KP=16   VTO=0)
.ends LTC6246
* LTC6247 MAR 4 10 PTK
* 				 OUT V- IN+ IN- V+
.subckt LTC6247 1 4 3 2 7
GG1 0 34 25 0 6.2832
RG1 34 0 0.159155 noiseless
CG1 34 0 0.214µ
RG2 25 0 3.4 noiseless
CG2 25 0 1µ
GG2 0 52 43 0 6.2832
RG3 52 0 0.159155 noiseless
CG3 52 0 3400p
RG4 16 0 1 noiseless
IBIAS1 7 2 30nA
Cdm1 2 3 1.6p
DIN1 2 7 DIN
DIN2 4 2 DIN
Ccm1 7 2 0.4p
GG3 0 61 52 0 0.1742
GG4 0 25 VALUE={90*TANH(V(16))}
GG5 0 16 VALUE={{14.2}*(V(3,2)+{-1.01m})+V(vns)+V(VCM)+V(VPR)}
GG6 0 43 34 0 6.2832
RG5 43 0 0.159155 noiseless
CG4 43 0 3400p
GCM1 0 VCM N003 4 2.5E-8
RCM1 VCM 0 1k noiseless
EICM1 N003 0 VALUE={(V(3)+V(2))/2}
RVNOI1 N3 0 214k
DVNF1 N2 0 DVNOI
IVNF1 0 N2 1
IDUM1 N3 0 0
DVNFX1 N1 0 DVNOIX
IVNFX1 0 N1 1
GPSRR1 0 VPR 7 4 3E-3
RPSRR1 VPR 0 1 noiseless
RPSRR2 VPR N004 1k noiseless
CPSRR1 N004 7 100p
RPSRR3 VPR N005 1k noiseless
CPSRR2 N005 4 10p
CCM2 VCM N003 0.1p
IBIAS2 7 3 40nA
DIN3 3 7 DIN
DIN4 4 3 DIN
Ccm3 7 3 0.4p
RN1 VNS 0 1 noiseless
GG7 0 VNS VALUE={V(N2,N1)+V(N3)}
MOUT1 Vp1 61 N010 N010 NOUT
MOUT2 Vm1 61 N010 N010 POUT
GLIM1 7 Vp1 VALUE={MIN({30m},V(7,Vp1))}
GLIM2 Vm1 4 VALUE={MIN({40m},V(Vm1,4))}
L1 N006 0 70n
RZ1 N006 61 5.74 noiseless
RG6 N006 0 340 noiseless
DVL1 P001 0 DVLIM
DVL2 P001 25 DVLIM
Vs1 N001 0 1mV
G1 7 4 N002 0 1
R1 N001 N002 25
Lzout1 N010 1 25n Rser=34 Rpar=52
G3 7 2 4 N007 1E-3
Rcs1 N009 N007 124k
C1 N007 N009 1µ
Rcs2 4 N008 250
Rcs3 N009 N008 124k
C2 N008 N009 0.25µ
G4 7 3 4 N013 1E-3
Rcs4 N012 N013 124k
C3 N013 N012 1µ
Rcs5 4 N011 250
Rcs6 N012 N011 124k
C4 N011 N012 0.25µ
.MODEL DIN 		D(KF=0 RS=0)
.MODEL DVLIM	D(BV=5 IS=1E-9	KF=0 RS=0)
.MODEL DVNOIX	D(KF=5.2E-9		RS=0)
.MODEL DVNOI D(KF=1E-9 		RS=0)
.MODEL DVNOIZ D(KF=1E-9 		RS=0)
.MODEL NOUT NMOS (KP=16 		VTO=0)
.MODEL POUT PMOS (KP=16 		VTO=0)
.ends LTC6247
* LTC6248 MAR 4 10 PTK
* 				 OUT V- IN+ IN- V+
.subckt LTC6248 1 4 3 2 7
GG1 0 34 25 0 6.2832
RG1 34 0 0.159155 noiseless
CG1 34 0 0.214µ
RG2 25 0 3.4 noiseless
CG2 25 0 1µ
GG2 0 52 43 0 6.2832
RG3 52 0 0.159155 noiseless
CG3 52 0 3400p
RG4 16 0 1 noiseless
IBIAS1 7 2 30n
Cdm1 2 3 1.6p
DIN1 2 7 DIN
DIN2 4 2 DIN
Ccm1 7 2 0.4p
GG3 0 61 52 0 0.1742
GG4 0 25 VALUE={90*TANH(V(16))}
GG5 0 16 VALUE={{14.2}*(V(3,2)+{-1.01m})+V(vns)+V(VCM)+V(VPR)}
GG6 0 43 34 0 6.2832
RG5 43 0 0.159155 noiseless
CG4 43 0 3400p
GCM1 0 VCM N003 4 2.5E-8
RCM1 VCM 0 1k noiseless
EICM1 N003 0 VALUE={(V(3)+V(2))/2}
RVNOI1 N3 0 214k
DVNF1 N2 0 DVNOI
IVNF1 0 N2 1
IDUM1 N3 0 0
DVNFX1 N1 0 DVNOIX
IVNFX1 0 N1 1
GPSRR1 0 VPR 7 4 3E-3
RPSRR1 VPR 0 1 noiseless
RPSRR2 VPR N004 1k noiseless
CPSRR1 N004 7 100p
RPSRR3 VPR N005 1k noiseless
CPSRR2 N005 4 10p
CCM2 VCM N003 0.1p
IBIAS2 7 3 40nA
DIN3 3 7 DIN
DIN4 4 3 DIN
Ccm3 7 3 0.4p
RN1 VNS 0 1 noiseless
GG7 0 VNS VALUE={V(N2,N1)+V(N3)}
MOUT1 Vp1 61 N010 N010 NOUT
MOUT2 Vm1 61 N010 N010 POUT
GLIM1 7 Vp1 VALUE={MIN({30m},V(7,Vp1))}
GLIM2 Vm1 4 VALUE={MIN({40m},V(Vm1,4))}
L1 N006 0 70n
RZ1 N006 61 5.74 noiseless
RG6 N006 0 340 noiseless
DVL1 P001 0 DVLIM
DVL2 P001 25 DVLIM
Vs1 N001 0 1mV
G1 7 4 N002 0 1
R1 N001 N002 25
Lzout1 N010 1 25n Rser=34 Rpar=52
G3 7 2 4 N007 1E-3
Rcs1 N009 N007 124k
C1 N007 N009 1µ
Rcs2 4 N008 250
Rcs3 N009 N008 124k
C2 N008 N009 0.25µ
G4 7 3 4 N013 1E-3
Rcs4 N012 N013 124k
C3 N013 N012 1µ
Rcs5 4 N011 250
Rcs6 N012 N011 124k
C4 N011 N012 0.25µ
.MODEL DIN 		D(KF=0 RS=0)
.MODEL DVLIM	D(BV=5 IS=1E-9	KF=0 RS=0)
.MODEL DVNOIX	D(KF=5.2E-9		RS=0)
.MODEL DVNOI D(KF=1E-9 		RS=0)
.MODEL DVNOIZ D(KF=1E-9 		RS=0)
.MODEL NOUT NMOS (KP=16 		VTO=0)
.MODEL POUT PMOS (KP=16 		VTO=0)
.ends LTC6248
* LT6350 SUBCIRCUIT MAR 2 10 PTK
.subckt LT6350 mIN1 pIN2 Vp OUT1 OUT2 Vm SHDN pIN1
GG3 0 34 25 0 6.2832
RG3 34 0 0.159155 noiseless
CG3 34 0 1600p
RG2 25 0 16 noiseless
CG2 25 0 1µ
RG1 16 0 1 noiseless
IBIAS1 VP mIN1 1.2µ
Cdm1 mIN1 pIN1 0.7p
DIN2 mIN1 VP DIN
DIN1 Vm mIN1 DIN
Ccm1 VP mIN1 1.8p
GG2 0 25 VALUE={40*TANH(V(16))}
GG1 0 16 VALUE={{14}*(V(pIN1,mIN1)+{-0.93m})+V(vns)+V(vcm)+V(vpr)}
RVNOI1 N3 0 5.2E4
DVNF1 N2 0 DVNOIY
IVNF1 0 N2 1
IDUM1 N3 0 0
DVNFX1 N1 0 DVNOIX
IVNFX1 0 N1 1
DVL1 P001 0 DVLIM
DVL2 P001 25 DVLIM
IBIAS2 Vp pIN1 1.1µ
DIN3 pIN1 Vp DIN
DIN4 Vm pIN1 DIN
Ccm2 Vp pIN1 1.8p
GPSRR1 0 N006 Vp Vm 1.6E-3
RPS1 N006 0 1 noiseless
CPS1 Vp N002 1p
RPS2 N002 0 10k noiseless
E1 VPR N006 N002 N004 1
CPS2 Vm N004 1p
RPS3 N004 0 10k noiseless
EICM1 N005 0 VALUE={(V(pIN1)+V(mIN1))/2}
CCM3 VCM N005 250p
RCM1 VCM 0 1 noiseless
GCM1 0 VCM N005 Vm 1E-4
G3 VP mIN1 Vm N007 1E-8
DVNF2 N007 Vm DVNOIZ
G1 Vp pIN1 Vm N014 1E-8
DVNF3 N014 Vm DVNOIZ
Vs1 N001 0 5m
S8 0 Vis VL 0 SW1
R6 N001 Vis 79
MOUT1 Vp1 N008 N010 N010 NOUT1
MOUT2 Vm1 N011 N010 N010 POUT1
GLIM1 Vp Vp1 VALUE={MIN({45m},V(Vp,Vp1))}
GLIM2 Vm1 Vm VALUE={MIN({45m},V(Vm1,Vm))}
S1 N008 34 VH 0 SW1
S2 N008 Vp VL 0 SW1
S3 N011 Vm VL 0 SW1
G2 Vp Vm Vis 0 1
Lzout1 N010 OUT1 250n Rser=1 Rpar=25
Cdm2 mIN2 pIN2 0.7p
DIN6 mIN2 Vp DIN
DIN7 Vm mIN2 DIN
Ccm4 Vp mIN2 1.8p
DIN8 pIN2 Vp DIN
DIN9 Vm pIN2 DIN
Ccm5 Vp pIN2 1.8p
RG7 160 0 1 noiseless
GG8 0 160 VALUE={{9.7}*(V(pIN2,mIN2)+{-1.6m})+V(N33)+V(vcm)+V(vpr)}
RG8 250 0 25 noiseless
CG1 250 0 1µ
GG9 0 250 VALUE={40*TANH(V(160))}
DVL3 P002 0 DVLIM
DVL4 P002 250 DVLIM
GG10 0 340 250 0 6.2832
RG9 340 0 0.159155 noiseless
CG6 340 0 7900p
MOUT3 Vp2 N009 N012 N012 NOUT2
MOUT4 Vm2 N013 N012 N012 POUT2
GLIM3 Vp Vp2 VALUE={MIN({45m},V(Vp,Vp2))}
GLIM4 Vm2 Vm VALUE={MIN({45m},V(Vm2,Vm))}
RVNOI2 N33 0 2.5E4
IDUM2 N33 0 0
RN1 VNS 0 1 noiseless
GG4 0 VNS VALUE={V(N2,N1)+V(N3)}
S7 Vm N003 Vm SHDN SW2
Rsh6 Vp N003 1MEG
Rsh9 Vp SHDN 1MEG
A1 N003 0 0 0 0 VL VH 0 SCHMITT Td=400n Vt=0.3 Vhigh=5 Vlow=0 Vh=10m
S4 N011 34 VH 0 SW1
Lzout2 N012 OUT2 250n Rser=25 Rpar=43
S5 N009 340 VH 0 SW1
S6 N009 Vp VL 0 SW1
S9 N013 Vm VL 0 SW1
S10 N013 340 VH 0 SW1
R4 OUT2 mIN2 1k
R5 mIN2 OUT1 1k
IBIAS3 Vp pIN2 1.2µ
G4 Vp pIN2 Vm N015 1E-8
DVNF4 N015 Vm DVNOIZ
IBIAS4 Vp SHDN 20µ
.MODEL DIN D(KF=0 RS=0)
.MODEL DVLIM D(BV=16 IS=1E-9 KF=0 RS=0)
.MODEL DVNOIX D(KF=52E-12 RS=0)
.MODEL DVNOIY D(KF=52E-12 RS=0)
.MODEL DVNOIZ D(KF=1E-16 RS=0)
.MODEL NOUT1 NMOS(KP=25 VTO=0)
.MODEL POUT1 PMOS(KP=25 VTO=0)
.MODEL NOUT2 NMOS(KP=25 VTO=0)
.MODEL POUT2 PMOS(KP=25 VTO=0)
.model SW1 SW(Ron=1 Roff=1G Vt=2 Vh=0)
.model SW2 SW(Ron=0.1 Roff=1G Vt=-0.3 Vh=0)
.ends LTC6350
